data/pglib_opf_case6468_rte_storage.m
%%%%%%%%%%%%%%%%%%%%%%%%%%%%%%%%%%%%%%%%%%%%%%%%%%%%%%%%%%%%%%%%%%%%%%%%%%%
%%%%                                                                  %%%%%
%%%%    IEEE PES Power Grid Library - Optimal Power Flow - v23.07     %%%%%
%%%%          (https://github.com/power-grid-lib/pglib-opf)           %%%%%
%%%%               Benchmark Group - Typical Operations               %%%%%
%%%%                         23 - July - 2023                         %%%%%
%%%%                                                                  %%%%%
%%%%%%%%%%%%%%%%%%%%%%%%%%%%%%%%%%%%%%%%%%%%%%%%%%%%%%%%%%%%%%%%%%%%%%%%%%%
%
%CASE6468RTE
%   AC Power flow data for French system.
%   Please see CASEFORMAT for details on the case file format.
%
%   This case accurately represents the size and complexity of French
%   very high voltage and high voltage transmission network.
%   These data are snapshots of French VHV+HV grid in 2013.
%   These data can be used to validate mathematical methods and tools.
%   These data should NOT be used for operation
%   nor planning of the French or European grids.
%
%   When publishing results using this data, please cite:
%     C. Josz, S. Fliscounakis, J. Maeght, and P. Panciatici,
%     "AC Power Flow Data in MATPOWER and QCQP Format: iTesla, RTE Snapshots, and PEGASE"
%     http://arxiv.org/abs/1603.01533
%
%   Contacts (primary contact for this file : Jean Maeght):
%   Cédric Josz, Stéphane Fliscounakis, Jean Maeght, Patrick Panciatici
%   firstname.lastname@rte-france.com
%   Réseau de Transport d'Electricité (French Transmission System Operator)
%   Département Expertise Système, Immeuble "Le Colbert"
%   9 rue de la Porte de Buc, 78000 Versailles Cedex, France
%   March 4th, 2016
%
%   Copyright (c) 2016 by Cédric Josz, Stéphane Fliscounakis, Jean Maeght,
%   and Patrick Panciatici
%   Licensed under the Creative Commons Attribution 4.0 International license,
%   http://creativecommons.org/licenses/by/4.0/
%
% Modified to have additional storage capacity and increased gencost
function mpc = pglib_opf_case6468_rte
mpc.version = '2';
mpc.baseMVA = 100.0;

%% bus data
%	bus_i	type	Pd	Qd	Gs	Bs	area	Vm	Va	baseKV	zone	Vmax	Vmin
mpc.bus = [
	1	 1	 0.0	 0.0	 0.0	 0.0	 1	    0.94444	    0.00000	 45.0	 1	    1.00000	    0.88889;
	2	 1	 0.0	 0.0	 0.0	 0.0	 1	    1.00000	    0.00000	 63.0	 1	    1.06349	    0.93651;
	3	 1	 11.7	 -1.2	 0.0	 0.0	 1	    1.01588	    0.00000	 63.0	 1	    1.07937	    0.95238;
	4	 1	 33.8	 -8.2	 0.0	 0.0	 1	    1.01111	    0.00000	 90.0	 1	    1.08889	    0.93333;
	5	 1	 11.0	 -0.9	 0.0	 0.0	 1	    1.00794	    0.00000	 63.0	 1	    1.06349	    0.95238;
	6	 1	 13.0	 4.3	 0.0	 0.0	 1	    1.00000	    0.00000	 63.0	 1	    1.07937	    0.92063;
	7	 1	 1.0	 -0.2	 0.0	 0.0	 1	    1.00000	    0.00000	 63.0	 1	    1.07937	    0.92063;
	8	 1	 0.4	 -4.4	 0.0	 0.0	 1	    0.98889	    0.00000	 225.0	 1	    1.08889	    0.88889;
	9	 1	 16.9	 0.0	 0.0	 0.0	 1	    1.00000	    0.00000	 63.0	 1	    1.06349	    0.93651;
	10	 1	 0.0	 0.0	 0.0	 0.0	 1	    1.00000	    0.00000	 90.0	 1	    1.07778	    0.92222;
	11	 1	 20.0	 -3.1	 0.0	 0.0	 1	    1.00000	    0.00000	 90.0	 1	    1.07778	    0.92222;
	12	 1	 0.0	 0.0	 0.0	 0.0	 1	    1.01588	    0.00000	 63.0	 1	    1.07937	    0.95238;
	13	 1	 0.0	 0.0	 0.0	 0.0	 1	    1.07673	    0.00000	 380.0	 1	    1.10263	    1.05084;
	14	 1	 37.0	 3.6	 0.0	 0.0	 1	    1.02778	    0.00000	 90.0	 1	    1.07778	    0.97778;
	15	 1	 0.0	 0.0	 0.0	 0.0	 1	    1.00000	    0.00000	 63.0	 1	    1.07937	    0.92063;
	16	 1	 10.3	 1.5	 0.0	 0.0	 1	    1.00000	    0.00000	 63.0	 1	    1.07937	    0.92063;
	17	 1	 11.2	 -0.6	 0.0	 0.0	 1	    1.02222	    0.00000	 90.0	 1	    1.06667	    0.97778;
	18	 1	 0.0	 0.0	 0.0	 0.0	 1	    0.94444	    0.00000	 45.0	 1	    1.00000	    0.88889;
	19	 1	 1.0	 0.0	 0.0	 0.0	 1	    1.00000	    0.00000	 63.0	 1	    1.06349	    0.93651;
	20	 1	 2.3	 -18.3	 0.0	 0.0	 1	    0.94444	    0.00000	 45.0	 1	    1.00000	    0.88889;
	21	 1	 6.5	 -1.9	 0.0	 0.0	 1	    1.02222	    0.00000	 90.0	 1	    1.06667	    0.97778;
	22	 1	 15.2	 1.4	 0.0	 0.0	 1	    1.01588	    0.00000	 63.0	 1	    1.07937	    0.95238;
	23	 1	 29.1	 4.6	 0.0	 0.0	 1	    1.00000	    0.00000	 63.0	 1	    1.06349	    0.93651;
	24	 1	 9.7	 -2.8	 0.0	 0.0	 1	    1.03333	    0.00000	 90.0	 1	    1.11111	    0.95556;
	25	 1	 46.5	 -6.1	 0.0	 0.0	 1	    1.02222	    0.00000	 90.0	 1	    1.10000	    0.94444;
	26	 1	 20.5	 4.7	 0.0	 0.0	 1	    1.02222	    0.00000	 90.0	 1	    1.06667	    0.97778;
	27	 1	 0.0	 0.0	 0.0	 0.0	 1	    1.04444	    0.00000	 225.0	 1	    1.08444	    1.00444;
	28	 1	 0.4	 0.9	 0.0	 0.0	 1	    1.01588	    0.00000	 63.0	 1	    1.07937	    0.95238;
	29	 1	 52.7	 1.8	 0.0	 0.0	 1	    1.01587	    0.00000	 63.0	 1	    1.06349	    0.96825;
	30	 1	 29.8	 -1.9	 0.0	 0.0	 1	    1.01111	    0.00000	 90.0	 1	    1.08889	    0.93333;
	31	 1	 0.0	 0.0	 0.0	 0.0	 1	    1.00000	    0.00000	 63.0	 1	    1.06349	    0.93651;
	32	 1	 0.0	 0.0	 0.0	 0.0	 1	    1.00334	    0.00000	 150.0	 1	    1.10667	    0.90000;
	33	 1	 0.0	 0.0	 0.0	 0.0	 1	    1.01111	    0.00000	 225.0	 1	    1.08889	    0.93333;
	34	 1	 0.0	 0.0	 0.0	 0.0	 1	    1.01111	    0.00000	 225.0	 1	    1.08889	    0.93333;
	35	 1	 0.0	 0.0	 0.0	 0.0	 1	    1.07237	    0.00000	 380.0	 1	    1.10526	    1.03947;
	36	 1	 0.0	 0.0	 0.0	 0.0	 1	    1.07237	    0.00000	 380.0	 1	    1.10526	    1.03947;
	37	 1	 2.3	 4.4	 0.0	 0.0	 1	    1.00000	    0.00000	 63.0	 1	    1.07937	    0.92063;
	38	 1	 7.0	 -1.0	 0.0	 0.0	 1	    1.01587	    0.00000	 63.0	 1	    1.09524	    0.93651;
	39	 1	 35.0	 -6.8	 0.0	 0.0	 1	    1.02778	    0.00000	 90.0	 1	    1.07778	    0.97778;
	40	 1	 31.7	 0.5	 0.0	 0.0	 1	    1.02778	    0.00000	 90.0	 1	    1.07778	    0.97778;
	41	 1	 0.0	 0.0	 0.0	 0.0	 1	    1.04819	    0.00000	 225.0	 1	    1.09194	    1.00444;
	42	 1	 0.0	 0.0	 0.0	 0.0	 1	    1.04150	    0.00000	 63.0	 1	    1.13061	    0.95238;
	43	 1	 3.4	 2.8	 0.0	 0.0	 1	    1.02778	    0.00000	 90.0	 1	    1.07778	    0.97778;
	44	 1	 12.4	 0.0	 0.0	 0.0	 1	    1.00794	    0.00000	 63.0	 1	    1.06349	    0.95238;
	45	 1	 3.0	 2.1	 0.0	 0.0	 1	    1.02222	    0.00000	 90.0	 1	    1.06667	    0.97778;
	46	 1	 0.0	 0.0	 0.0	 0.0	 1	    1.00000	    0.00000	 63.0	 1	    1.06349	    0.93651;
	47	 2	 0.0	 0.0	 0.0	 0.0	 1	    1.00000	    0.00000	 63.0	 1	    1.06349	    0.93651;
	48	 1	 34.0	 1.3	 0.0	 0.0	 1	    1.00000	    0.00000	 90.0	 1	    1.07778	    0.92222;
	49	 1	 6.9	 -2.5	 0.0	 0.0	 1	    1.00000	    0.00000	 63.0	 1	    1.06349	    0.93651;
	50	 1	 0.0	 0.0	 0.0	 0.0	 1	    1.00543	    0.00000	 63.0	 1	    1.07436	    0.93651;
	51	 1	 0.0	 0.0	 0.0	 0.0	 1	    1.01111	    0.00000	 225.0	 1	    1.08889	    0.93333;
	52	 1	 5.8	 2.5	 0.0	 0.0	 1	    1.02222	    0.00000	 90.0	 1	    1.06667	    0.97778;
	53	 1	 0.2	 -0.3	 0.0	 0.0	 1	    1.00000	    0.00000	 63.0	 1	    1.04762	    0.95238;
	54	 1	 0.9	 -0.8	 0.0	 0.0	 1	    1.02222	    0.00000	 90.0	 1	    1.06667	    0.97778;
	55	 1	 30.1	 5.4	 0.0	 0.0	 1	    1.04666	    0.00000	 225.0	 1	    1.08889	    1.00444;
	56	 1	 42.2	 6.3	 0.0	 0.0	 1	    1.04666	    0.00000	 225.0	 1	    1.08889	    1.00444;
	57	 2	 0.0	 0.0	 0.0	 0.0	 1	    1.00000	    0.00000	 63.0	 1	    1.07937	    0.92063;
	58	 1	 107.6	 28.8	 0.0	 0.0	 1	    1.04666	    0.00000	 225.0	 1	    1.08889	    1.00444;
	59	 1	 5.2	 1.4	 0.0	 0.0	 1	    1.01588	    0.00000	 63.0	 1	    1.07937	    0.95238;
	60	 1	 0.0	 0.0	 0.0	 0.0	 1	    1.01588	    0.00000	 63.0	 1	    1.07937	    0.95238;
	61	 1	 29.6	 5.1	 0.0	 0.0	 1	    1.01588	    0.00000	 63.0	 1	    1.07937	    0.95238;
	62	 1	 0.0	 0.0	 0.0	 0.0	 1	    1.01588	    0.00000	 63.0	 1	    1.07937	    0.95238;
	63	 1	 12.8	 2.0	 0.0	 0.0	 1	    1.01588	    0.00000	 63.0	 1	    1.07937	    0.95238;
	64	 1	 47.2	 -0.7	 0.0	 0.0	 1	    0.98889	    0.00000	 225.0	 1	    1.08889	    0.88889;
	65	 1	 10.0	 2.9	 0.0	 0.0	 1	    1.01588	    0.00000	 63.0	 1	    1.07937	    0.95238;
	66	 1	 11.1	 -9.3	 0.0	 0.0	 1	    1.00000	    0.00000	 63.0	 1	    1.06349	    0.93651;
	67	 1	 0.0	 0.0	 0.0	 0.0	 1	    1.00000	    0.00000	 63.0	 1	    1.07937	    0.92063;
	68	 1	 41.1	 -6.8	 0.0	 0.0	 1	    1.00000	    0.00000	 63.0	 1	    1.06349	    0.93651;
	69	 1	 14.4	 -3.2	 0.0	 0.0	 1	    1.00794	    0.00000	 63.0	 1	    1.06349	    0.95238;
	70	 1	 8.7	 0.6	 0.0	 0.0	 1	    1.01588	    0.00000	 63.0	 1	    1.07937	    0.95238;
	71	 1	 55.8	 10.7	 0.0	 0.0	 1	    1.00000	    0.00000	 63.0	 1	    1.04762	    0.95238;
	72	 1	 0.0	 0.0	 0.0	 0.0	 1	    1.04666	    0.00000	 225.0	 1	    1.08889	    1.00444;
	73	 1	 0.0	 0.0	 0.0	 0.0	 1	    1.04666	    0.00000	 225.0	 1	    1.08889	    1.00444;
	74	 1	 37.1	 -8.7	 0.0	 0.0	 1	    0.98889	    0.00000	 225.0	 1	    1.08889	    0.88889;
	75	 1	 19.3	 1.4	 0.0	 0.0	 1	    1.02301	    0.00000	 90.0	 1	    1.06825	    0.97778;
	76	 1	 6.3	 3.2	 0.0	 0.0	 1	    1.03778	    0.00000	 225.0	 1	    1.08889	    0.98667;
	77	 1	 28.9	 -5.2	 0.0	 0.0	 1	    1.00000	    0.00000	 63.0	 1	    1.06349	    0.93651;
	78	 1	 0.0	 0.0	 0.0	 0.0	 1	    1.00000	    0.00000	 63.0	 1	    1.07937	    0.92063;
	79	 1	 0.0	 0.0	 0.0	 0.0	 1	    1.00000	    0.00000	 63.0	 1	    1.04762	    0.95238;
	80	 1	 26.1	 -1.0	 0.0	 0.0	 1	    1.04666	    0.00000	 225.0	 1	    1.08889	    1.00444;
	81	 1	 26.1	 3.5	 0.0	 0.0	 1	    1.04666	    0.00000	 225.0	 1	    1.08889	    1.00444;
	82	 1	 9.8	 -3.2	 0.0	 0.0	 1	    1.00000	    0.00000	 63.0	 1	    1.06349	    0.93651;
	83	 1	 85.0	 46.2	 0.0	 0.0	 1	    1.04666	    0.00000	 225.0	 1	    1.08889	    1.00444;
	84	 1	 -1.0	 -1.1	 0.0	 0.0	 1	    1.00000	    0.00000	 63.0	 1	    1.06349	    0.93651;
	85	 1	 2.3	 -0.8	 0.0	 0.0	 1	    1.00000	    0.00000	 63.0	 1	    1.06349	    0.93651;
	86	 1	 30.3	 -3.7	 0.0	 0.0	 1	    1.02222	    0.00000	 90.0	 1	    1.06667	    0.97778;
	87	 1	 0.0	 0.0	 0.0	 0.0	 1	    1.01588	    0.00000	 63.0	 1	    1.07937	    0.95238;
	88	 1	 11.5	 -3.8	 0.0	 0.0	 1	    1.00000	    0.00000	 63.0	 1	    1.06349	    0.93651;
	89	 1	 17.7	 -4.9	 0.0	 0.0	 1	    1.02778	    0.00000	 90.0	 1	    1.07778	    0.97778;
	90	 1	 0.7	 -0.3	 0.0	 0.0	 1	    0.94444	    0.00000	 45.0	 1	    1.00000	    0.88889;
	91	 1	 0.0	 0.0	 0.0	 0.0	 1	    0.94444	    0.00000	 45.0	 1	    1.00000	    0.88889;
	92	 1	 24.7	 0.4	 0.0	 0.0	 1	    1.01587	    0.00000	 63.0	 1	    1.06349	    0.96825;
	93	 1	 2.3	 -2.5	 0.0	 0.0	 1	    0.94444	    0.00000	 45.0	 1	    1.00000	    0.88889;
	94	 1	 13.0	 -4.9	 0.0	 0.0	 1	    1.02222	    0.00000	 90.0	 1	    1.06667	    0.97778;
	95	 1	 38.0	 3.8	 0.0	 0.0	 1	    1.02222	    0.00000	 90.0	 1	    1.06667	    0.97778;
	96	 1	 0.9	 -0.6	 0.0	 0.0	 1	    1.00000	    0.00000	 63.0	 1	    1.06349	    0.93651;
	97	 1	 47.0	 0.8	 0.0	 0.0	 1	    1.00000	    0.00000	 63.0	 1	    1.07937	    0.92063;
	98	 1	 6.6	 -2.2	 0.0	 0.0	 1	    1.01588	    0.00000	 63.0	 1	    1.07937	    0.95238;
	99	 1	 21.9	 3.2	 0.0	 0.0	 1	    1.01588	    0.00000	 63.0	 1	    1.07937	    0.95238;
	100	 1	 46.3	 7.4	 0.0	 0.0	 1	    1.00000	    0.00000	 63.0	 1	    1.06349	    0.93651;
	101	 1	 14.0	 -1.5	 0.0	 0.0	 1	    1.00000	    0.00000	 63.0	 1	    1.06349	    0.93651;
	102	 2	 0.0	 0.0	 0.0	 0.0	 1	    1.01588	    0.00000	 63.0	 1	    1.07937	    0.95238;
	103	 1	 13.2	 -4.0	 0.0	 0.0	 1	    1.01588	    0.00000	 63.0	 1	    1.07937	    0.95238;
	104	 1	 0.0	 0.0	 0.0	 0.0	 1	    1.03778	    0.00000	 225.0	 1	    1.08889	    0.98667;
	105	 1	 28.5	 -1.6	 0.0	 0.0	 1	    0.98889	    0.00000	 225.0	 1	    1.08889	    0.88889;
	106	 1	 38.8	 2.2	 0.0	 0.0	 1	    1.02222	    0.00000	 90.0	 1	    1.10000	    0.94444;
	107	 1	 71.6	 4.9	 0.0	 0.0	 1	    1.04666	    0.00000	 225.0	 1	    1.08444	    1.00889;
	108	 1	 7.9	 -4.6	 0.0	 0.0	 1	    1.02778	    0.00000	 90.0	 1	    1.07778	    0.97778;
	109	 1	 60.6	 7.8	 0.0	 0.0	 1	    1.00000	    0.00000	 63.0	 1	    1.06349	    0.93651;
	110	 1	 0.0	 0.0	 0.0	 0.0	 1	    1.01111	    0.00000	 225.0	 1	    1.08889	    0.93333;
	111	 1	 34.2	 -7.2	 0.0	 0.0	 1	    1.01587	    0.00000	 63.0	 1	    1.06349	    0.96825;
	112	 1	 0.0	 0.0	 0.0	 0.0	 1	    1.00000	    0.00000	 63.0	 1	    1.04762	    0.95238;
	113	 1	 0.0	 0.0	 0.0	 0.0	 1	    1.04666	    0.00000	 225.0	 1	    1.08889	    1.00444;
	114	 1	 11.5	 -1.0	 0.0	 0.0	 1	    1.00000	    0.00000	 63.0	 1	    1.06349	    0.93651;
	115	 1	 0.0	 0.0	 0.0	 0.0	 1	    1.07805	    0.00000	 380.0	 1	    1.10526	    1.05085;
	116	 1	 0.0	 0.0	 0.0	 0.0	 1	    1.07805	    0.00000	 380.0	 1	    1.10526	    1.05085;
	117	 1	 13.2	 -2.2	 0.0	 0.0	 1	    1.01588	    0.00000	 63.0	 1	    1.07937	    0.95238;
	118	 1	 2.0	 0.8	 0.0	 0.0	 1	    1.02395	    0.00000	 90.0	 1	    1.07012	    0.97778;
	119	 1	 35.5	 0.7	 0.0	 0.0	 1	    1.00000	    0.00000	 63.0	 1	    1.06349	    0.93651;
	120	 1	 29.9	 -1.3	 0.0	 0.0	 1	    1.00000	    0.00000	 63.0	 1	    1.06349	    0.93651;
	121	 1	 15.3	 3.7	 0.0	 0.0	 1	    1.00000	    0.00000	 63.0	 1	    1.07937	    0.92063;
	122	 2	 0.0	 0.0	 0.0	 0.0	 1	    1.01588	    0.00000	 63.0	 1	    1.07937	    0.95238;
	123	 1	 9.0	 2.7	 0.0	 0.0	 1	    1.01588	    0.00000	 63.0	 1	    1.07937	    0.95238;
	124	 1	 8.9	 -4.0	 0.0	 0.0	 1	    1.02222	    0.00000	 90.0	 1	    1.06667	    0.97778;
	125	 1	 4.8	 -3.1	 0.0	 0.0	 1	    1.01588	    0.00000	 63.0	 1	    1.07937	    0.95238;
	126	 1	 -0.3	 0.5	 0.0	 0.0	 1	    1.00000	    0.00000	 63.0	 1	    1.06349	    0.93651;
	127	 1	 6.5	 0.4	 0.0	 0.0	 1	    1.00000	    0.00000	 63.0	 1	    1.04762	    0.95238;
	128	 1	 13.9	 5.6	 0.0	 0.0	 1	    1.01587	    0.00000	 63.0	 1	    1.06349	    0.96825;
	129	 1	 18.8	 14.3	 0.0	 0.0	 1	    1.01587	    0.00000	 63.0	 1	    1.06349	    0.96825;
	130	 1	 0.0	 0.0	 0.0	 0.0	 1	    1.04666	    0.00000	 225.0	 1	    1.08444	    1.00889;
	131	 1	 82.0	 2.0	 0.0	 0.0	 1	    1.04666	    0.00000	 225.0	 1	    1.08444	    1.00889;
	132	 2	 11.9	 0.0	 0.0	 0.0	 1	    1.00000	    0.00000	 90.0	 1	    1.07778	    0.92222;
	133	 1	 1.3	 0.3	 0.0	 0.0	 1	    1.00000	    0.00000	 63.0	 1	    1.04762	    0.95238;
	134	 1	 71.7	 15.7	 0.0	 0.0	 1	    1.04666	    0.00000	 225.0	 1	    1.08889	    1.00444;
	135	 1	 0.0	 0.0	 0.0	 0.0	 1	    1.04666	    0.00000	 225.0	 1	    1.08889	    1.00444;
	136	 1	 18.8	 2.3	 0.0	 0.0	 1	    1.02778	    0.00000	 90.0	 1	    1.07778	    0.97778;
	137	 2	 13.4	 -9.1	 0.0	 0.0	 1	    1.01587	    0.00000	 63.0	 1	    1.06349	    0.96825;
	138	 1	 0.0	 0.0	 0.0	 0.0	 1	    1.02333	    0.00000	 150.0	 1	    1.08000	    0.96667;
	139	 1	 8.6	 -1.0	 0.0	 0.0	 1	    1.00000	    0.00000	 63.0	 1	    1.07937	    0.92063;
	140	 1	 0.0	 0.0	 0.0	 0.0	 1	    1.04445	    0.00000	 225.0	 1	    1.08889	    1.00000;
	141	 1	 0.0	 0.0	 0.0	 0.0	 1	    1.07895	    0.00000	 380.0	 1	    1.10526	    1.05263;
	142	 1	 15.8	 1.3	 0.0	 0.0	 1	    1.01588	    0.00000	 63.0	 1	    1.07937	    0.95238;
	143	 1	 0.0	 0.0	 0.0	 0.0	 1	    1.03778	    0.00000	 225.0	 1	    1.08889	    0.98667;
	144	 1	 0.0	 0.0	 0.0	 -64.0	 1	    0.97500	    0.00000	 20.0	 1	    1.15000	    0.80000;
	145	 1	 21.2	 10.0	 0.0	 0.0	 1	    1.03333	    0.00000	 90.0	 1	    1.11111	    0.95556;
	146	 1	 25.6	 6.2	 0.0	 0.0	 1	    1.02889	    0.00000	 225.0	 1	    1.08889	    0.96889;
	147	 1	 0.0	 0.0	 0.0	 0.0	 1	    1.05263	    0.00000	 380.0	 1	    1.10526	    1.00000;
	148	 1	 25.0	 3.6	 0.0	 0.0	 1	    1.00000	    0.00000	 63.0	 1	    1.06349	    0.93651;
	149	 1	 6.3	 2.2	 0.0	 0.0	 1	    1.00000	    0.00000	 63.0	 1	    1.06349	    0.93651;
	150	 1	 17.9	 5.1	 0.0	 0.0	 1	    1.02222	    0.00000	 90.0	 1	    1.06667	    0.97778;
	151	 1	 41.9	 5.6	 0.0	 0.0	 1	    1.00000	    0.00000	 63.0	 1	    1.06349	    0.93651;
	152	 1	 0.0	 0.0	 0.0	 0.0	 1	    1.01587	    0.00000	 63.0	 1	    1.06349	    0.96825;
	153	 1	 34.2	 5.9	 0.0	 7.7	 1	    1.01587	    0.00000	 63.0	 1	    1.06349	    0.96825;
	154	 1	 20.4	 0.6	 0.0	 0.0	 1	    1.00000	    0.00000	 63.0	 1	    1.06349	    0.93651;
	155	 1	 0.0	 0.0	 0.0	 0.0	 1	    1.01111	    0.00000	 225.0	 1	    1.08889	    0.93333;
	156	 2	 0.0	 0.0	 0.0	 0.0	 1	    1.00000	    0.00000	 63.0	 1	    1.07937	    0.92063;
	157	 1	 0.0	 0.0	 0.0	 0.0	 1	    1.01587	    0.00000	 63.0	 1	    1.06349	    0.96825;
	158	 1	 -0.1	 -2.1	 0.0	 0.0	 1	    0.94444	    0.00000	 45.0	 1	    1.00000	    0.88889;
	159	 2	 0.0	 0.0	 0.0	 0.0	 1	    0.94444	    0.00000	 45.0	 1	    1.00000	    0.88889;
	160	 1	 0.0	 0.0	 0.0	 0.0	 1	    1.00000	    0.00000	 63.0	 1	    1.06349	    0.93651;
	161	 1	 29.5	 2.3	 0.0	 0.0	 1	    0.98889	    0.00000	 225.0	 1	    1.08889	    0.88889;
	162	 1	 31.5	 7.4	 0.0	 0.0	 1	    0.98889	    0.00000	 225.0	 1	    1.08889	    0.88889;
	163	 1	 0.4	 -1.6	 0.0	 0.0	 1	    1.02222	    0.00000	 90.0	 1	    1.06667	    0.97778;
	164	 1	 0.0	 0.0	 0.0	 0.0	 1	    1.01588	    0.00000	 63.0	 1	    1.07937	    0.95238;
	165	 1	 0.0	 0.0	 0.0	 0.0	 1	    1.01588	    0.00000	 63.0	 1	    1.07937	    0.95238;
	166	 1	 11.3	 -3.9	 0.0	 0.0	 1	    0.97500	    0.00000	 20.0	 1	    1.15000	    0.80000;
	167	 1	 5.8	 1.4	 0.0	 0.0	 1	    1.02222	    0.00000	 90.0	 1	    1.06667	    0.97778;
	168	 1	 7.8	 -0.9	 0.0	 0.0	 1	    1.02222	    0.00000	 90.0	 1	    1.06667	    0.97778;
	169	 1	 0.0	 0.0	 0.0	 0.0	 1	    1.04543	    0.00000	 225.0	 1	    1.08642	    1.00444;
	170	 1	 9.1	 -1.1	 0.0	 0.0	 1	    1.02222	    0.00000	 90.0	 1	    1.06667	    0.97778;
	171	 1	 60.0	 6.1	 0.0	 0.0	 1	    1.02778	    0.00000	 90.0	 1	    1.07778	    0.97778;
	172	 1	 21.4	 -1.8	 0.0	 0.0	 1	    1.02778	    0.00000	 90.0	 1	    1.07778	    0.97778;
	173	 1	 0.0	 0.0	 0.0	 0.0	 1	    1.04666	    0.00000	 225.0	 1	    1.08889	    1.00444;
	174	 1	 26.6	 6.6	 0.0	 0.0	 1	    1.01111	    0.00000	 90.0	 1	    1.08889	    0.93333;
	175	 1	 35.7	 -1.5	 0.0	 0.0	 1	    1.03333	    0.00000	 90.0	 1	    1.11111	    0.95556;
	176	 1	 0.0	 0.0	 0.0	 0.0	 1	    1.00000	    0.00000	 63.0	 1	    1.07937	    0.92063;
	177	 1	 0.0	 0.0	 0.0	 0.0	 1	    1.00000	    0.00000	 63.0	 1	    1.07937	    0.92063;
	178	 2	 0.0	 0.0	 0.0	 0.0	 1	    1.00000	    0.00000	 150.0	 1	    1.10000	    0.90000;
	179	 1	 0.0	 0.0	 0.0	 0.0	 1	    1.04666	    0.00000	 225.0	 1	    1.08889	    1.00444;
	180	 1	 0.0	 0.0	 0.0	 0.0	 1	    1.04666	    0.00000	 225.0	 1	    1.08889	    1.00444;
	181	 1	 0.0	 0.0	 0.0	 -32.0	 1	    0.97500	    0.00000	 20.0	 1	    1.15000	    0.80000;
	182	 1	 0.0	 0.0	 0.0	 -32.0	 1	    0.97500	    0.00000	 20.0	 1	    1.15000	    0.80000;
	183	 1	 0.0	 0.0	 0.0	 0.0	 1	    1.00000	    0.00000	 63.0	 1	    1.04762	    0.95238;
	184	 1	 0.0	 0.0	 0.0	 -80.0	 1	    1.04666	    0.00000	 225.0	 1	    1.08889	    1.00444;
	185	 1	 12.1	 -5.9	 0.0	 0.0	 1	    1.00000	    0.00000	 63.0	 1	    1.07937	    0.92063;
	186	 1	 16.0	 3.1	 0.0	 0.0	 1	    1.00000	    0.00000	 63.0	 1	    1.06349	    0.93651;
	187	 1	 5.4	 0.3	 0.0	 0.0	 1	    1.01588	    0.00000	 63.0	 1	    1.07937	    0.95238;
	188	 1	 3.0	 0.4	 0.0	 0.0	 1	    1.02778	    0.00000	 90.0	 1	    1.07778	    0.97778;
	189	 1	 21.9	 2.4	 0.0	 0.0	 1	    1.01588	    0.00000	 63.0	 1	    1.07937	    0.95238;
	190	 1	 1.4	 -0.7	 0.0	 0.0	 1	    1.02222	    0.00000	 90.0	 1	    1.06667	    0.97778;
	191	 2	 0.0	 0.0	 0.0	 0.0	 1	    1.00000	    0.00000	 63.0	 1	    1.07937	    0.92063;
	192	 1	 12.5	 1.1	 0.0	 0.0	 1	    1.00000	    0.00000	 63.0	 1	    1.07937	    0.92063;
	193	 2	 0.0	 0.0	 0.0	 0.0	 1	    0.94444	    0.00000	 45.0	 1	    1.00000	    0.88889;
	194	 1	 12.7	 -1.3	 0.0	 0.0	 1	    1.02222	    0.00000	 90.0	 1	    1.06667	    0.97778;
	195	 1	 7.3	 -1.4	 0.0	 0.0	 1	    1.00000	    0.00000	 63.0	 1	    1.07937	    0.92063;
	196	 1	 7.7	 5.3	 0.0	 0.0	 1	    1.04666	    0.00000	 225.0	 1	    1.08889	    1.00444;
	197	 2	 1.4	 -3.2	 0.0	 0.0	 1	    1.00000	    0.00000	 63.0	 1	    1.07937	    0.92063;
	198	 1	 0.0	 0.0	 0.0	 0.0	 1	    1.02491	    0.00000	 63.0	 1	    1.09743	    0.95238;
	199	 1	 0.0	 0.0	 0.0	 0.0	 1	    1.02491	    0.00000	 63.0	 1	    1.09743	    0.95238;
	200	 1	 25.0	 -4.9	 0.0	 0.0	 1	    1.00000	    0.00000	 63.0	 1	    1.07937	    0.92063;
...
];

%% generator data
%	bus	Pg	Qg	Qmax	Qmin	Vg	mBase	status	Pmax	Pmin
mpc.gen = [
	4	 0.0	 0.0	 0.0	 0.0	 1.0111115	 100.0	 0	 12.0	 0.0; % NG
	4	 0.0	 0.0	 0.0	 0.0	 1.0111115	 100.0	 0	 10.0	 0.0; % NG
	5	 0.0	 0.0	 0.0	 0.0	 1.0079355	 100.0	 0	 9.1	 0.0; % NG
	11	 0.0	 0.0	 0.0	 0.0	 1.000001	 100.0	 0	 28.0	 0.0; % NG
	11	 0.0	 0.0	 0.0	 0.0	 1.000001	 100.0	 0	 18.0	 0.0; % NG
	17	 0.0	 0.0	 0.0	 0.0	 1.022224	 100.0	 0	 8.2	 0.0; % COW
	19	 0.0	 0.0	 0.0	 0.0	 0.999999	 100.0	 0	 1.2	 0.0; % PEL
	22	 0.0	 0.0	 0.0	 0.0	 1.0158755	 100.0	 0	 10.0	 0.0; % NG
	24	 0.0	 0.0	 0.0	 0.0	 1.033333	 100.0	 0	 16.1	 0.0; % COW
	24	 0.0	 0.0	 0.0	 0.0	 1.033333	 100.0	 0	 35.5	 0.0; % NG
	25	 0.0	 0.0	 0.0	 0.0	 1.022222	 100.0	 0	 36.0	 0.0; % COW
	25	 0.0	 0.0	 0.0	 0.0	 1.022222	 100.0	 0	 27.2	 0.0; % NG
	40	 0.0	 0.0	 0.0	 0.0	 1.027779	 100.0	 0	 8.0	 0.0; % NG
	47	 0.0	 -3.11	 9.5	 -9.5	 0.999999	 100.0	 0	 16.0	 0.0; % PEL
	47	 0.0	 -3.11	 9.5	 -9.5	 0.999999	 100.0	 0	 16.0	 0.0; % PEL
	48	 0.0	 0.0	 0.0	 0.0	 1.000001	 100.0	 0	 23.0	 0.0; % PEL
	48	 0.0	 0.0	 0.0	 0.0	 1.000001	 100.0	 0	 24.0	 0.0; % PEL
	57	 6.5	 0.95	 1.0	 0.9	 1.0000025	 100.0	 1	 13.0	 0.0; % NG
	64	 0.0	 0.0	 0.0	 0.0	 0.9888895	 100.0	 0	 24.0	 0.0; % PEL
	64	 0.0	 0.0	 0.0	 0.0	 0.9888895	 100.0	 0	 27.6	 0.0; % PEL
	69	 15.02	 0.0	 0.0	 0.0	 1.0079355	 100.0	 1	 30.04	 0.0; % COW
	70	 0.0	 0.0	 0.0	 0.0	 1.0158755	 100.0	 0	 23.0	 0.0; % NG
	85	 0.0	 0.0	 0.0	 0.0	 0.999999	 100.0	 0	 6.68	 0.0; % PEL
	86	 0.0	 0.0	 0.0	 0.0	 1.022224	 100.0	 0	 9.2	 0.0; % NG
	102	 23.0	 6.0	 21.0	 -9.0	 1.0158755	 100.0	 1	 46.0	 0.0; % NG
	122	 0.0	 -0.8	 5.0	 -2.0	 1.0158755	 100.0	 0	 12.0	 0.0; % COW
	124	 0.0	 0.0	 0.0	 0.0	 1.022224	 100.0	 0	 9.0	 0.0; % NG
	125	 13.0	 0.0	 0.0	 0.0	 1.0158755	 100.0	 1	 26.0	 0.0; % NG
	125	 0.0	 0.0	 0.0	 0.0	 1.0158755	 100.0	 0	 12.0	 0.0; % NG
	132	 0.0	 0.75	 3.0	 -3.0	 1.000001	 100.0	 0	 17.0	 0.0; % PEL
	132	 0.0	 0.75	 1.0	 -1.0	 1.000001	 100.0	 0	 4.0	 0.0; % PEL
	132	 0.0	 0.75	 3.0	 -3.0	 1.000001	 100.0	 0	 14.0	 0.0; % NG
	132	 0.0	 0.75	 3.0	 -3.0	 1.000001	 100.0	 0	 14.0	 0.0; % COW
	137	 0.0	 -0.8	 0.8	 -0.8	 1.015872	 100.0	 0	 18.0	 0.0; % PEL
	137	 0.0	 -0.8	 0.8	 -0.8	 1.015872	 100.0	 0	 18.0	 0.0; % NG
	156	 0.0	 1.5	 1.76	 -1.76	 1.0000025	 100.0	 0	 5.3	 0.0; % NG
	159	 0.0	 1.1	 10.0	 -13.0	 0.9444445	 100.0	 0	 17.9	 0.0; % PEL
	159	 0.0	 -1.9	 10.0	 -13.0	 0.9444445	 100.0	 0	 17.9	 0.0; % NG
	178	 0.0	 -1.31	 10.0	 -4.0	 1.0	 100.0	 0	 30.0	 0.0; % PEL
	191	 0.0	 -0.09	 8.0	 -8.0	 1.0000025	 100.0	 0	 11.0	 0.0; % NG
	191	 0.0	 -0.09	 2.0	 -2.0	 1.0000025	 100.0	 0	 11.0	 0.0; % NG
	193	 0.0	 -2.64	 14.0	 -14.0	 0.9444445	 100.0	 0	 30.0	 0.0; % PEL
	195	 0.0	 0.0	 0.0	 0.0	 1.0000025	 100.0	 0	 23.5	 0.0; % NG
	197	 7.5	 0.95	 1.0	 0.9	 1.0000025	 100.0	 1	 15.0	 0.0; % NG
	197	 7.5	 0.95	 1.0	 0.9	 1.0000025	 100.0	 1	 15.0	 0.0; % COW
	220	 0.0	 0.0	 0.0	 0.0	 1.022224	 100.0	 0	 11.94	 0.0; % NG
	227	 0.0	 0.0	 2.0	 0.0	 1.0	 100.0	 0	 6.0	 0.0; % NG
	230	 0.0	 0.0	 0.0	 0.0	 1.0079355	 100.0	 0	 7.5	 0.0; % PEL
	239	 0.0	 0.0	 0.0	 0.0	 1.000001	 100.0	 0	 33.5	 0.0; % PEL
	239	 0.0	 0.0	 0.0	 0.0	 1.000001	 100.0	 0	 24.3	 0.0; % NG
	241	 0.0	 0.0	 0.0	 0.0	 1.022224	 100.0	 0	 8.0	 0.0; % NG
	241	 0.0	 0.0	 0.0	 0.0	 1.022224	 100.0	 0	 36.0	 0.0; % NG
	249	 0.0	 0.0	 2.0	 0.0	 0.999999	 100.0	 0	 1.0	 0.0; % PEL
	249	 0.0	 -2.59	 10.0	 -10.0	 0.999999	 100.0	 0	 31.0	 0.0; % NG
	249	 0.0	 -2.59	 10.0	 -10.0	 0.999999	 100.0	 0	 31.0	 0.0; % PEL
	249	 0.0	 -2.59	 10.0	 -10.0	 0.999999	 100.0	 0	 31.0	 0.0; % NG
	259	 0.0	 3.48	 10.0	 -10.0	 1.0000025	 100.0	 0	 26.0	 0.0; % PEL
	259	 0.0	 2.51	 10.0	 -10.0	 1.0000025	 100.0	 0	 26.0	 0.0; % NG
	261	 0.0	 0.0	 1.0	 0.9	 1.000001	 100.0	 0	 30.0	 0.0; % COW
	264	 0.0	 4.0	 4.0	 -4.0	 1.0000025	 100.0	 0	 8.0	 0.0; % NG
	272	 0.0	 0.0	 0.0	 0.0	 1.0000025	 100.0	 0	 12.6	 0.0; % COW
	285	 0.0	 -2.62	 6.1	 -6.2	 0.999999	 100.0	 0	 11.6	 0.0; % NG
	298	 0.0	 0.0	 0.0	 0.0	 0.9888895	 100.0	 0	 25.3	 0.0; % PEL
	299	 0.0	 0.0	 0.0	 0.0	 1.0158755	 100.0	 0	 12.0	 0.0; % COW
	308	 0.0	 -6.7	 9.0	 -9.0	 0.999999	 100.0	 0	 15.0	 0.0; % NG
	315	 12.9	 0.0	 0.0	 0.0	 1.000001	 100.0	 1	 25.8	 0.0; % NG
	315	 24.8	 0.0	 0.0	 0.0	 1.000001	 100.0	 1	 49.6	 0.0; % NG
	320	 0.0	 0.0	 0.0	 0.0	 1.0000025	 100.0	 0	 0.0	 -7.0; % SYNC
	320	 0.0	 0.0	 0.0	 0.0	 1.0000025	 100.0	 0	 0.0	 -7.0; % SYNC
	322	 0.0	 0.1	 0.1	 -0.1	 1.0000025	 100.0	 0	 10.8	 0.0; % PEL
	328	 0.0	 -0.23	 4.0	 -4.0	 0.999999	 100.0	 0	 11.0	 0.0; % NG
	335	 0.0	 2.42	 13.0	 -9.0	 1.015872	 100.0	 0	 25.0	 0.0; % NG
	336	 0.0	 4.48	 13.0	 -9.0	 1.0233335	 100.0	 0	 25.0	 0.0; % NG
	339	 0.0	 2.68	 5.0	 -6.0	 1.0000025	 100.0	 0	 13.0	 0.0; % NG
	341	 0.0	 1.05	 10.0	 -10.0	 1.0000025	 100.0	 0	 21.0	 0.0; % NG
	341	 0.0	 0.1	 0.1	 -0.1	 1.0000025	 100.0	 0	 2.0	 0.0; % PEL
	348	 0.0	 0.0	 0.0	 0.0	 1.027779	 100.0	 0	 2.3	 0.0; % PEL
	348	 9.75	 0.0	 0.0	 0.0	 1.027779	 100.0	 1	 19.5	 0.0; % NG
	351	 0.0	 0.0	 0.0	 0.0	 1.022222	 100.0	 0	 22.0	 0.0; % PEL
	359	 0.0	 9.21	 30.0	 -30.0	 1.0000025	 100.0	 0	 30.0	 0.0; % PEL
	360	 0.0	 0.0	 0.0	 0.0	 1.0158755	 100.0	 0	 12.0	 0.0; % NG
	360	 0.0	 0.0	 0.0	 0.0	 1.0158755	 100.0	 0	 12.0	 0.0; % COW
	367	 65.0	 16.5	 59.0	 -26.0	 1.046665	 100.0	 1	 130.0	 0.0; % COW
	394	 0.0	 0.0	 0.0	 0.0	 1.0000025	 100.0	 0	 2.7	 0.0; % PEL
	413	 0.0	 0.0	 0.0	 0.0	 1.022224	 100.0	 0	 10.0	 0.0; % NG
	413	 0.0	 0.0	 0.0	 0.0	 1.022224	 100.0	 0	 11.5	 0.0; % PEL
	433	 0.0	 0.0	 0.0	 0.0	 1.0000025	 100.0	 0	 12.0	 0.0; % PEL
	442	 0.0	 5.39	 10.96	 -11.99	 1.0000025	 100.0	 0	 34.25	 0.0; % PEL
	449	 0.0	 -0.57	 8.0	 -9.0	 1.015872	 100.0	 0	 25.0	 0.0; % PEL
	465	 0.0	 0.0	 0.0	 0.0	 1.0079355	 100.0	 0	 2.4	 0.0; % PEL
	465	 0.0	 0.0	 0.0	 0.0	 1.0079355	 100.0	 0	 16.0	 0.0; % PEL
	467	 14.0	 1.5	 6.0	 -3.0	 0.984995	 100.0	 1	 27.0	 1.0; % PEL
	467	 14.0	 1.5	 6.0	 -3.0	 0.984995	 100.0	 1	 27.0	 1.0; % NG
	469	 24.5	 4.5	 19.0	 -10.0	 1.0079355	 100.0	 1	 48.0	 1.0; % NG
	473	 0.0	 -3.72	 6.0	 -6.0	 0.999999	 100.0	 0	 10.0	 0.0; % COW
	473	 0.0	 -5.4	 5.4	 -5.4	 0.999999	 100.0	 0	 9.0	 0.0; % NG
	482	 0.0	 -2.21	 17.0	 -16.0	 0.999999	 100.0	 0	 27.0	 0.0; % NG
	482	 0.0	 -2.21	 17.0	 -16.0	 0.999999	 100.0	 0	 27.0	 0.0; % NG
	482	 0.0	 -2.21	 17.0	 -16.0	 0.999999	 100.0	 0	 27.0	 0.0; % NG
	494	 0.0	 0.09	 8.0	 -17.0	 1.033334	 100.0	 0	 23.4	 0.0; % PEL
	511	 0.0	 1.56	 2.0	 -2.0	 0.999999	 100.0	 0	 4.0	 0.0; % NG
	520	 0.0	 0.0	 0.0	 0.0	 1.015874	 100.0	 0	 10.0	 0.0; % NG
	521	 0.0	 0.0	 0.0	 0.0	 1.022224	 100.0	 0	 12.0	 0.0; % COW
	531	 0.0	 -1.49	 4.8	 -4.8	 0.999999	 100.0	 0	 8.0	 0.0; % PEL
	531	 0.0	 -1.49	 4.8	 -4.8	 0.999999	 100.0	 0	 8.0	 0.0; % PEL
	531	 0.0	 -1.49	 4.8	 -4.8	 0.999999	 100.0	 0	 8.0	 0.0; % NG
	537	 0.0	 0.0	 0.0	 0.0	 1.022224	 100.0	 0	 12.0	 0.0; % COW
	537	 12.0	 0.0	 0.0	 0.0	 1.022224	 100.0	 1	 24.0	 0.0; % PEL
	546	 4.5	 1.95	 2.0	 1.9	 1.0000025	 100.0	 1	 9.0	 0.0; % NG
	549	 0.0	 2.0	 2.0	 0.0	 1.0000025	 100.0	 0	 12.0	 0.0; % PEL
	571	 0.0	 0.0	 0.0	 0.0	 1.0158755	 100.0	 0	 12.0	 0.0; % NG
	571	 15.0	 0.0	 0.0	 0.0	 1.0158755	 100.0	 1	 30.0	 0.0; % NG
	571	 0.0	 0.0	 0.0	 0.0	 1.0158755	 100.0	 0	 11.5	 0.0; % NG
	584	 8.0	 1.5	 7.0	 -4.0	 1.0000005	 100.0	 1	 16.0	 0.0; % COW
	586	 0.0	 0.0	 0.0	 0.0	 1.0158755	 100.0	 0	 9.0	 0.0; % NG
	587	 0.0	 -4.04	 5.7	 -5.7	 0.999999	 100.0	 0	 9.5	 0.0; % NG
	590	 0.0	 0.1	 0.1	 -0.1	 1.000001	 100.0	 0	 1.0	 0.0; % NG
	594	 0.0	 2.85	 10.0	 -10.0	 1.0000025	 100.0	 0	 21.0	 0.0; % PEL
	601	 0.0	 1.0	 1.0	 -1.0	 1.015872	 100.0	 0	 6.1	 0.0; % NG
	611	 22.5	 0.0	 45.0	 -45.0	 0.975	 100.0	 1	 45.0	 0.0; % COW
	611	 0.0	 -1.37	 45.0	 -45.0	 0.975	 100.0	 0	 45.0	 0.0; % NG
	613	 0.0	 0.0	 0.0	 0.0	 1.022224	 100.0	 0	 12.0	 0.0; % COW
	613	 0.0	 0.0	 0.0	 0.0	 1.022224	 100.0	 0	 12.0	 0.0; % NG
	613	 0.0	 0.0	 0.0	 0.0	 1.022224	 100.0	 0	 12.0	 0.0; % NG
	614	 0.0	 0.0	 0.0	 0.0	 1.0000005	 100.0	 0	 35.0	 0.0; % PEL
	614	 0.0	 0.0	 0.0	 0.0	 1.0000005	 100.0	 0	 11.5	 0.0; % NG
	626	 0.0	 -8.3	 8.3	 -8.3	 1.0111115	 100.0	 0	 8.3	 -8.3; % NG
	635	 0.0	 -6.0	 4.0	 -6.0	 0.999999	 100.0	 0	 7.3	 0.0; % NG
	638	 0.0	 1.83	 7.0	 0.0	 1.015872	 100.0	 0	 15.0	 0.0; % COW
	638	 0.0	 5.83	 7.0	 0.0	 1.015872	 100.0	 0	 15.0	 0.0; % NG
	653	 0.0	 0.0	 7.0	 0.0	 1.0000025	 100.0	 0	 7.0	 0.0; % PEL
	671	 0.0	 0.0	 0.0	 0.0	 1.022224	 100.0	 0	 12.0	 0.0; % NG
	671	 0.0	 0.0	 0.0	 0.0	 1.022224	 100.0	 0	 12.0	 0.0; % NG
	672	 0.0	 0.0	 0.0	 0.0	 1.027779	 100.0	 0	 7.5	 0.0; % NG
	672	 12.0	 0.0	 0.0	 0.0	 1.027779	 100.0	 1	 24.0	 0.0; % PEL
	680	 0.0	 0.0	 0.0	 0.0	 1.022224	 100.0	 0	 6.6	 0.0; % COW
	681	 0.0	 0.0	 0.0	 0.0	 1.027719	 100.0	 0	 12.0	 0.0; % NG
	685	 0.0	 -0.6	 6.0	 -5.0	 0.9444445	 100.0	 0	 9.0	 0.0; % COW
	685	 0.0	 -0.6	 6.0	 -5.0	 0.9444445	 100.0	 0	 9.0	 0.0; % NG
	685	 0.0	 -0.6	 8.0	 -5.0	 0.9444445	 100.0	 0	 11.0	 0.0; % NG
	685	 0.0	 -0.6	 8.0	 -5.0	 0.9444445	 100.0	 0	 11.0	 0.0; % NG
	696	 16.175	 0.0	 0.0	 0.0	 1.022222	 100.0	 1	 32.35	 0.0; % PEL
	696	 0.0	 0.0	 0.0	 0.0	 1.022222	 100.0	 0	 12.0	 0.0; % NG
	696	 0.0	 0.0	 0.0	 0.0	 1.022222	 100.0	 0	 21.0	 0.0; % NG
	700	 18.5	 -1.0	 15.0	 -17.0	 0.975	 100.0	 1	 37.0	 0.0; % NG
	700	 18.5	 -1.0	 15.0	 -17.0	 0.975	 100.0	 1	 37.0	 0.0; % NG
	699	 18.5	 0.0	 15.0	 -15.0	 0.975	 100.0	 1	 37.0	 0.0; % NG
	699	 18.5	 0.0	 15.0	 -15.0	 0.975	 100.0	 1	 37.0	 0.0; % NG
	698	 18.5	 -1.0	 15.0	 -17.0	 0.975	 100.0	 1	 37.0	 0.0; % NG
	698	 18.5	 -1.0	 15.0	 -17.0	 0.975	 100.0	 1	 37.0	 0.0; % NG
	706	 0.0	 0.69	 2.0	 -2.0	 0.9444445	 100.0	 0	 4.0	 0.0; % PEL
	706	 0.0	 1.19	 2.5	 -2.5	 0.9444445	 100.0	 0	 4.0	 0.0; % PEL
	706	 0.0	 1.6	 3.0	 -3.0	 0.9444445	 100.0	 0	 5.7	 0.0; % NG
	706	 0.0	 -1.31	 6.0	 -5.0	 0.9444445	 100.0	 0	 8.5	 0.0; % NG
	733	 9.75	 0.0	 0.0	 0.0	 1.022224	 100.0	 1	 19.5	 0.0; % NG
	734	 19.5	 0.0	 18.0	 -18.0	 0.999999	 100.0	 1	 39.0	 0.0; % PEL
	735	 0.0	 0.0	 0.0	 0.0	 1.0158755	 100.0	 0	 11.5	 0.0; % NG
	735	 16.0	 0.0	 0.0	 0.0	 1.0158755	 100.0	 1	 32.0	 0.0; % NG
	737	 0.0	 0.0	 0.0	 0.0	 1.000001	 100.0	 0	 12.0	 0.0; % COW
	737	 0.0	 0.0	 0.0	 0.0	 1.000001	 100.0	 0	 32.0	 0.0; % PEL
	738	 0.0	 0.1	 0.1	 -0.1	 1.0000025	 100.0	 0	 5.0	 0.0; % COW
	745	 0.0	 -2.25	 4.4	 -3.7	 0.999999	 100.0	 0	 6.7	 0.0; % NG
	745	 0.0	 -1.65	 5.0	 -3.0	 0.999999	 100.0	 0	 5.6	 0.0; % NG
	746	 13.3	 -0.775	 15.0	 -16.55	 0.999999	 100.0	 1	 26.6	 0.0; % NG
	747	 4.0	 0.0	 2.0	 -2.0	 1.022224	 100.0	 1	 7.0	 1.0; % PEL
	752	 0.0	 -2.63	 3.0	 -3.0	 0.999999	 100.0	 0	 5.0	 -5.0; % NG
	759	 0.0	 5.35	 8.0	 -8.0	 0.9888895	 100.0	 0	 23.5	 0.0; % PEL
	761	 0.0	 0.0	 0.0	 0.0	 0.999999	 100.0	 0	 6.0	 0.0; % COW
	762	 0.0	 0.0	 0.0	 0.0	 0.999999	 100.0	 0	 6.0	 0.0; % NG
	761	 18.75	 2.0	 10.0	 -6.0	 0.999999	 100.0	 1	 37.5	 0.0; % NG
	762	 18.75	 2.0	 10.0	 -6.0	 0.999999	 100.0	 1	 37.5	 0.0; % NG
	763	 0.0	 0.06	 0.06	 -0.06	 0.825	 100.0	 0	 0.6	 0.0; % PEL
	763	 0.0	 2.61	 2.61	 -2.61	 0.825	 100.0	 0	 26.1	 0.0; % NG
	763	 0.0	 0.16	 0.16	 -0.16	 0.825	 100.0	 0	 1.6	 0.0; % PEL
	763	 0.0	 0.11	 0.11	 -0.11	 0.825	 100.0	 0	 1.1	 0.0; % NG
	767	 0.0	 0.0	 0.0	 0.0	 1.0158755	 100.0	 0	 37.5	 0.0; % NG
	767	 0.0	 0.0	 0.0	 0.0	 1.0158755	 100.0	 0	 34.0	 0.0; % NG
	787	 0.0	 -3.75	 26.0	 -26.0	 0.975	 100.0	 0	 8.0	 0.0; % COW
	787	 0.0	 -3.75	 26.0	 -26.0	 0.975	 100.0	 0	 15.0	 0.0; % COW
	788	 0.0	 -3.4	 26.0	 -26.0	 0.975	 100.0	 0	 19.0	 0.0; % NG
	802	 15.5	 -1.0	 15.0	 -17.0	 0.975	 100.0	 1	 31.0	 0.0; % PEL
	802	 15.5	 -1.0	 15.0	 -17.0	 0.975	 100.0	 1	 31.0	 0.0; % COW
	803	 15.5	 -1.0	 15.0	 -17.0	 0.975	 100.0	 1	 31.0	 0.0; % COW
	803	 15.5	 -1.0	 15.0	 -17.0	 0.975	 100.0	 1	 31.0	 0.0; % COW
	804	 15.5	 -1.0	 15.0	 -17.0	 0.975	 100.0	 1	 31.0	 0.0; % NG
	804	 15.5	 -1.0	 15.0	 -17.0	 0.975	 100.0	 1	 31.0	 0.0; % NG
	808	 0.0	 0.0	 0.0	 0.0	 1.0000025	 100.0	 0	 40.8	 0.0; % NG
	816	 16.5	 -1.5	 6.0	 -9.0	 1.015872	 100.0	 1	 32.0	 1.0; % NG
	816	 0.0	 0.0	 6.0	 -9.0	 1.015872	 100.0	 0	 32.0	 1.0; % NG
	817	 16.5	 -1.5	 6.0	 -9.0	 1.015872	 100.0	 1	 32.0	 1.0; % PEL
	817	 16.5	 -1.5	 6.0	 -9.0	 1.015872	 100.0	 1	 32.0	 1.0; % NG
	817	 16.5	 -1.5	 6.0	 -9.0	 1.015872	 100.0	 1	 32.0	 1.0; % NG
	817	 16.5	 -1.5	 6.0	 -9.0	 1.015872	 100.0	 1	 32.0	 1.0; % NG
	827	 0.0	 0.38	 3.0	 -3.0	 1.0000025	 100.0	 0	 13.0	 0.0; % NG
	827	 0.0	 3.0	 3.0	 -3.0	 1.0000025	 100.0	 0	 7.0	 0.0; % NG
	830	 0.0	 0.0	 0.0	 0.0	 1.022222	 100.0	 0	 2.4	 0.0; % PEL
	831	 0.0	 1.43	 10.0	 -10.0	 1.0000025	 100.0	 0	 27.0	 0.0; % PEL
	832	 0.0	 -2.73	 10.0	 -10.0	 0.9444445	 100.0	 0	 20.0	 0.0; % NG
	834	 0.0	 -0.51	 3.14	 -3.43	 1.0000025	 100.0	 0	 9.8	 0.0; % PEL
	834	 0.0	 0.0	 1.0	 0.0	 1.0000025	 100.0	 0	 5.0	 0.0; % NG
...
];

%% generator cost data
%	2	startup	shutdown	n	c(n-1)	...	c0
mpc.gencost = [
2	0.0	0.0	3	0.2	33.448778	0.000000;	%	NG
2	0.0	0.0	3	0.2	41.332818	0.000000;	%	NG
2	0.0	0.0	3	0.2	13.835940	0.000000;	%	NG
2	0.0	0.0	3	0.2	24.667146	0.000000;	%	NG
2	0.0	0.0	3	0.2	41.609647	0.000000;	%	NG
2	0.0	0.0	3	0.2	16.317434	0.000000;	%	COW
2	0.0	0.0	3	0.2	122.685524	0.000000;	%	PEL
2	0.0	0.0	3	0.2	18.728687	0.000000;	%	NG
2	0.0	0.0	3	0.2	16.417012	0.000000;	%	COW
2	0.0	0.0	3	0.2	44.737952	0.000000;	%	NG
2	0.0	0.0	3	0.2	22.951399	0.000000;	%	COW
2	0.0	0.0	3	0.2	42.572952	0.000000;	%	NG
2	0.0	0.0	3	0.2	21.558129	0.000000;	%	NG
2	0.0	0.0	3	0.2	112.206948	0.000000;	%	PEL
2	0.0	0.0	3	0.2	112.328840	0.000000;	%	PEL
2	0.0	0.0	3	0.2	125.539496	0.000000;	%	PEL
2	0.0	0.0	3	0.2	99.363606	0.000000;	%	PEL
2	0.0	0.0	3	0.2	53.949700	0.000000;	%	NG
2	0.0	0.0	3	0.2	106.450488	0.000000;	%	PEL
2	0.0	0.0	3	0.2	109.303907	0.000000;	%	PEL
2	0.0	0.0	3	0.2	21.866918	0.000000;	%	COW
2	0.0	0.0	3	0.2	35.522208	0.000000;	%	NG
2	0.0	0.0	3	0.2	118.651498	0.000000;	%	PEL
2	0.0	0.0	3	0.2	25.202641	0.000000;	%	NG
2	0.0	0.0	3	0.2	54.149483	0.000000;	%	NG
2	0.0	0.0	3	0.2	22.579173	0.000000;	%	COW
2	0.0	0.0	3	0.2	26.571266	0.000000;	%	NG
2	0.0	0.0	3	0.2	37.191374	0.000000;	%	NG
2	0.0	0.0	3	0.2	31.309683	0.000000;	%	NG
2	0.0	0.0	3	0.2	110.841483	0.000000;	%	PEL
2	0.0	0.0	3	0.2	111.740133	0.000000;	%	PEL
2	0.0	0.0	3	0.2	43.319341	0.000000;	%	NG
2	0.0	0.0	3	0.2	14.233921	0.000000;	%	COW
2	0.0	0.0	3	0.2	102.110539	0.000000;	%	PEL
2	0.0	0.0	3	0.2	33.852190	0.000000;	%	NG
2	0.0	0.0	3	0.2	20.629508	0.000000;	%	NG
2	0.0	0.0	3	0.2	110.534362	0.000000;	%	PEL
2	0.0	0.0	3	0.2	23.102280	0.000000;	%	NG
2	0.0	0.0	3	0.2	104.965248	0.000000;	%	PEL
2	0.0	0.0	3	0.2	50.527484	0.000000;	%	NG
2	0.0	0.0	3	0.2	52.987734	0.000000;	%	NG
2	0.0	0.0	3	0.2	119.383923	0.000000;	%	PEL
2	0.0	0.0	3	0.2	40.798227	0.000000;	%	NG
2	0.0	0.0	3	0.2	38.687217	0.000000;	%	NG
2	0.0	0.0	3	0.2	31.216674	0.000000;	%	COW
2	0.0	0.0	3	0.2	15.249232	0.000000;	%	NG
2	0.0	0.0	3	0.2	10.666055	0.000000;	%	NG
2	0.0	0.0	3	0.2	104.915824	0.000000;	%	PEL
2	0.0	0.0	3	0.2	103.955961	0.000000;	%	PEL
2	0.0	0.0	3	0.2	27.087259	0.000000;	%	NG
2	0.0	0.0	3	0.2	29.434265	0.000000;	%	NG
2	0.0	0.0	3	0.2	53.812514	0.000000;	%	NG
2	0.0	0.0	3	0.2	117.684672	0.000000;	%	PEL
2	0.0	0.0	3	0.2	20.546339	0.000000;	%	NG
2	0.0	0.0	3	0.2	108.737407	0.000000;	%	PEL
2	0.0	0.0	3	0.2	13.090251	0.000000;	%	NG
2	0.0	0.0	3	0.2	106.880092	0.000000;	%	PEL
2	0.0	0.0	3	0.2	23.391388	0.000000;	%	NG
2	0.0	0.0	3	0.2	9.277855	0.000000;	%	COW
2	0.0	0.0	3	0.2	33.103546	0.000000;	%	NG
2	0.0	0.0	3	0.2	31.454121	0.000000;	%	COW
2	0.0	0.0	3	0.2	41.889085	0.000000;	%	NG
2	0.0	0.0	3	0.2	103.191000	0.000000;	%	PEL
2	0.0	0.0	3	0.2	38.635503	0.000000;	%	COW
2	0.0	0.0	3	0.2	29.098634	0.000000;	%	NG
2	0.0	0.0	3	0.2	28.693762	0.000000;	%	NG
2	0.0	0.0	3	0.2	46.202652	0.000000;	%	NG
	2	 0.0	 0.0	 3	   0.000000	   0.000000	   0.000000; % SYNC
	2	 0.0	 0.0	 3	   0.000000	   0.000000	   0.000000; % SYNC
2	0.0	0.0	3	0.2	106.127259	0.000000;	%	PEL
2	0.0	0.0	3	0.2	13.362537	0.000000;	%	NG
2	0.0	0.0	3	0.2	28.459525	0.000000;	%	NG
2	0.0	0.0	3	0.2	36.070484	0.000000;	%	NG
2	0.0	0.0	3	0.2	40.136595	0.000000;	%	NG
2	0.0	0.0	3	0.2	32.572384	0.000000;	%	NG
2	0.0	0.0	3	0.2	105.523863	0.000000;	%	PEL
2	0.0	0.0	3	0.2	104.546718	0.000000;	%	PEL
2	0.0	0.0	3	0.2	44.158454	0.000000;	%	NG
2	0.0	0.0	3	0.2	106.412773	0.000000;	%	PEL
2	0.0	0.0	3	0.2	118.023230	0.000000;	%	PEL
2	0.0	0.0	3	0.2	48.775553	0.000000;	%	NG
2	0.0	0.0	3	0.2	28.893293	0.000000;	%	COW
2	0.0	0.0	3	0.2	15.412473	0.000000;	%	COW
2	0.0	0.0	3	0.2	102.491204	0.000000;	%	PEL
2	0.0	0.0	3	0.2	50.080449	0.000000;	%	NG
2	0.0	0.0	3	0.2	119.136435	0.000000;	%	PEL
2	0.0	0.0	3	0.2	112.758050	0.000000;	%	PEL
2	0.0	0.0	3	0.2	116.218952	0.000000;	%	PEL
2	0.0	0.0	3	0.2	118.072050	0.000000;	%	PEL
2	0.0	0.0	3	0.2	104.334969	0.000000;	%	PEL
2	0.0	0.0	3	0.2	118.202290	0.000000;	%	PEL
2	0.0	0.0	3	0.2	119.324988	0.000000;	%	PEL
2	0.0	0.0	3	0.2	17.270899	0.000000;	%	NG
2	0.0	0.0	3	0.2	46.807453	0.000000;	%	NG
2	0.0	0.0	3	0.2	14.142931	0.000000;	%	COW
2	0.0	0.0	3	0.2	38.557329	0.000000;	%	NG
2	0.0	0.0	3	0.2	30.508318	0.000000;	%	NG
2	0.0	0.0	3	0.2	34.527934	0.000000;	%	NG
2	0.0	0.0	3	0.2	44.619678	0.000000;	%	NG
2	0.0	0.0	3	0.2	108.377117	0.000000;	%	PEL
2	0.0	0.0	3	0.2	25.824738	0.000000;	%	NG
2	0.0	0.0	3	0.2	41.199053	0.000000;	%	NG
2	0.0	0.0	3	0.2	31.877238	0.000000;	%	COW
2	0.0	0.0	3	0.2	101.351725	0.000000;	%	PEL
2	0.0	0.0	3	0.2	108.068924	0.000000;	%	PEL
2	0.0	0.0	3	0.2	9.761813	0.000000;	%	NG
2	0.0	0.0	3	0.2	34.219027	0.000000;	%	COW
2	0.0	0.0	3	0.2	122.675116	0.000000;	%	PEL
2	0.0	0.0	3	0.2	42.057955	0.000000;	%	NG
2	0.0	0.0	3	0.2	114.541456	0.000000;	%	PEL
2	0.0	0.0	3	0.2	41.454943	0.000000;	%	NG
2	0.0	0.0	3	0.2	34.324663	0.000000;	%	NG
2	0.0	0.0	3	0.2	28.305836	0.000000;	%	NG
2	0.0	0.0	3	0.2	22.962516	0.000000;	%	COW
2	0.0	0.0	3	0.2	37.945927	0.000000;	%	NG
2	0.0	0.0	3	0.2	25.637584	0.000000;	%	NG
2	0.0	0.0	3	0.2	36.894429	0.000000;	%	NG
2	0.0	0.0	3	0.2	122.230259	0.000000;	%	PEL
2	0.0	0.0	3	0.2	18.258590	0.000000;	%	NG
2	0.0	0.0	3	0.2	34.396766	0.000000;	%	COW
2	0.0	0.0	3	0.2	37.691184	0.000000;	%	NG
2	0.0	0.0	3	0.2	17.090377	0.000000;	%	COW
2	0.0	0.0	3	0.2	52.436519	0.000000;	%	NG
2	0.0	0.0	3	0.2	27.981756	0.000000;	%	NG
2	0.0	0.0	3	0.2	116.180190	0.000000;	%	PEL
2	0.0	0.0	3	0.2	39.914188	0.000000;	%	NG
2	0.0	0.0	3	0.2	23.309066	0.000000;	%	NG
2	0.0	0.0	3	0.2	42.409356	0.000000;	%	NG
2	0.0	0.0	3	0.2	21.175224	0.000000;	%	COW
2	0.0	0.0	3	0.2	38.792503	0.000000;	%	NG
2	0.0	0.0	3	0.2	111.867342	0.000000;	%	PEL
2	0.0	0.0	3	0.2	27.929715	0.000000;	%	NG
2	0.0	0.0	3	0.2	32.021972	0.000000;	%	NG
2	0.0	0.0	3	0.2	10.569974	0.000000;	%	NG
2	0.0	0.0	3	0.2	111.951478	0.000000;	%	PEL
2	0.0	0.0	3	0.2	15.711250	0.000000;	%	COW
2	0.0	0.0	3	0.2	26.867763	0.000000;	%	NG
2	0.0	0.0	3	0.2	12.517429	0.000000;	%	COW
2	0.0	0.0	3	0.2	38.118960	0.000000;	%	NG
2	0.0	0.0	3	0.2	38.662547	0.000000;	%	NG
2	0.0	0.0	3	0.2	31.577134	0.000000;	%	NG
2	0.0	0.0	3	0.2	116.196042	0.000000;	%	PEL
2	0.0	0.0	3	0.2	42.708059	0.000000;	%	NG
2	0.0	0.0	3	0.2	30.813467	0.000000;	%	NG
2	0.0	0.0	3	0.2	51.565361	0.000000;	%	NG
2	0.0	0.0	3	0.2	47.917871	0.000000;	%	NG
2	0.0	0.0	3	0.2	25.772872	0.000000;	%	NG
2	0.0	0.0	3	0.2	26.773032	0.000000;	%	NG
2	0.0	0.0	3	0.2	29.355321	0.000000;	%	NG
2	0.0	0.0	3	0.2	35.125469	0.000000;	%	NG
2	0.0	0.0	3	0.2	99.252137	0.000000;	%	PEL
2	0.0	0.0	3	0.2	115.910524	0.000000;	%	PEL
2	0.0	0.0	3	0.2	37.955969	0.000000;	%	NG
2	0.0	0.0	3	0.2	32.236783	0.000000;	%	NG
2	0.0	0.0	3	0.2	33.641991	0.000000;	%	NG
2	0.0	0.0	3	0.2	118.845401	0.000000;	%	PEL
2	0.0	0.0	3	0.2	25.207646	0.000000;	%	NG
2	0.0	0.0	3	0.2	43.739311	0.000000;	%	NG
2	0.0	0.0	3	0.2	19.447295	0.000000;	%	COW
2	0.0	0.0	3	0.2	103.789418	0.000000;	%	PEL
2	0.0	0.0	3	0.2	20.125469	0.000000;	%	COW
2	0.0	0.0	3	0.2	42.162623	0.000000;	%	NG
2	0.0	0.0	3	0.2	27.454138	0.000000;	%	NG
2	0.0	0.0	3	0.2	21.079907	0.000000;	%	NG
2	0.0	0.0	3	0.2	109.022197	0.000000;	%	PEL
2	0.0	0.0	3	0.2	40.297021	0.000000;	%	NG
2	0.0	0.0	3	0.2	106.139212	0.000000;	%	PEL
2	0.0	0.0	3	0.2	10.617365	0.000000;	%	COW
2	0.0	0.0	3	0.2	56.253423	0.000000;	%	NG
2	0.0	0.0	3	0.2	29.504637	0.000000;	%	NG
2	0.0	0.0	3	0.2	23.424946	0.000000;	%	NG
2	0.0	0.0	3	0.2	117.485491	0.000000;	%	PEL
2	0.0	0.0	3	0.2	22.273778	0.000000;	%	NG
2	0.0	0.0	3	0.2	112.927805	0.000000;	%	PEL
2	0.0	0.0	3	0.2	36.506497	0.000000;	%	NG
2	0.0	0.0	3	0.2	43.167009	0.000000;	%	NG
2	0.0	0.0	3	0.2	36.381968	0.000000;	%	NG
2	0.0	0.0	3	0.2	25.199616	0.000000;	%	COW
2	0.0	0.0	3	0.2	22.281954	0.000000;	%	COW
2	0.0	0.0	3	0.2	23.339728	0.000000;	%	NG
2	0.0	0.0	3	0.2	109.971466	0.000000;	%	PEL
2	0.0	0.0	3	0.2	12.719871	0.000000;	%	COW
2	0.0	0.0	3	0.2	28.546665	0.000000;	%	COW
2	0.0	0.0	3	0.2	35.819221	0.000000;	%	COW
2	0.0	0.0	3	0.2	37.980137	0.000000;	%	NG
2	0.0	0.0	3	0.2	52.456038	0.000000;	%	NG
2	0.0	0.0	3	0.2	23.890540	0.000000;	%	NG
2	0.0	0.0	3	0.2	19.235121	0.000000;	%	NG
2	0.0	0.0	3	0.2	60.132845	0.000000;	%	NG
2	0.0	0.0	3	0.2	111.353488	0.000000;	%	PEL
2	0.0	0.0	3	0.2	29.875404	0.000000;	%	NG
2	0.0	0.0	3	0.2	19.082651	0.000000;	%	NG
2	0.0	0.0	3	0.2	4.676219	0.000000;	%	NG
2	0.0	0.0	3	0.2	22.908268	0.000000;	%	NG
2	0.0	0.0	3	0.2	19.037183	0.000000;	%	NG
2	0.0	0.0	3	0.2	120.685498	0.000000;	%	PEL
2	0.0	0.0	3	0.2	119.354325	0.000000;	%	PEL
2	0.0	0.0	3	0.2	27.686941	0.000000;	%	NG
2	0.0	0.0	3	0.2	106.648189	0.000000;	%	PEL
2	0.0	0.0	3	0.2	24.004908	0.000000;	%	NG
...
];

%% storage data
%	bus	energy	energy_rating	charge_rating	discharge_rating	thermal_rating	qmin	qmax	r	x	standby_loss	status
mpc.storage = [
	6021	0.0	0.0	1.00	3004.6500	1502.3250	1081.6740	0.9	0.85	1000	-1000	1000	0.1	0.01	0	0	1;
	6117	0.0	0.0	1.00	1743.1500	871.5750	627.5340	0.9	0.85	1000	-1000	1000	0.1	0.01	0	0	1;
	6213	0.0	0.0	1.00	1341.6000	670.8000	482.9760	0.9	0.85	1000	-1000	1000	0.1	0.01	0	0	1;
	6088	0.0	0.0	1.00	1328.2500	664.1250	478.1700	0.9	0.85	1000	-1000	1000	0.1	0.01	0	0	1;
	5998	0.0	0.0	1.00	1219.9500	609.9750	439.1820	0.9	0.85	1000	-1000	1000	0.1	0.01	0	0	1;
	6168	0.0	0.0	1.00	1166.5500	583.2750	419.9580	0.9	0.85	1000	-1000	1000	0.1	0.01	0	0	1;
	6040	0.0	0.0	1.00	951.0000	475.5000	342.3600	0.9	0.85	1000	-1000	1000	0.1	0.01	0	0	1;
	6206	0.0	0.0	1.00	873.0000	436.5000	314.2800	0.9	0.85	1000	-1000	1000	0.1	0.01	0	0	1;
	6267	0.0	0.0	1.00	845.7000	422.8500	304.4520	0.9	0.85	1000	-1000	1000	0.1	0.01	0	0	1;
	6129	0.0	0.0	1.00	841.8000	420.9000	303.0480	0.9	0.85	1000	-1000	1000	0.1	0.01	0	0	1;
	6023	0.0	0.0	1.00	840.1500	420.0750	302.4540	0.9	0.85	1000	-1000	1000	0.1	0.01	0	0	1;
	6003	0.0	0.0	1.00	814.3500	407.1750	293.1660	0.9	0.85	1000	-1000	1000	0.1	0.01	0	0	1;
	6067	0.0	0.0	1.00	752.4000	376.2000	270.8640	0.9	0.85	1000	-1000	1000	0.1	0.01	0	0	1;
	6151	0.0	0.0	1.00	714.9000	357.4500	257.3640	0.9	0.85	1000	-1000	1000	0.1	0.01	0	0	1;
	6015	0.0	0.0	1.00	713.2500	356.6250	256.7700	0.9	0.85	1000	-1000	1000	0.1	0.01	0	0	1;
	6008	0.0	0.0	1.00	701.2500	350.6250	252.4500	0.9	0.85	1000	-1000	1000	0.1	0.01	0	0	1;
	6176	0.0	0.0	1.00	696.3000	348.1500	250.6680	0.9	0.85	1000	-1000	1000	0.1	0.01	0	0	1;
	6097	0.0	0.0	1.00	658.9500	329.4750	237.2220	0.9	0.85	1000	-1000	1000	0.1	0.01	0	0	1;
	475	0.0	0.0	1.00	658.6500	329.3250	237.1140	0.9	0.85	1000	-1000	1000	0.1	0.01	0	0	1;
	476	0.0	0.0	1.00	658.6500	329.3250	237.1140	0.9	0.85	1000	-1000	1000	0.1	0.01	0	0	1;
	6041	0.0	0.0	1.00	628.6500	314.3250	226.3140	0.9	0.85	1000	-1000	1000	0.1	0.01	0	0	1;
	2148	0.0	0.0	1.00	616.9500	308.4750	222.1020	0.9	0.85	1000	-1000	1000	0.1	0.01	0	0	1;
	6122	0.0	0.0	1.00	589.9500	294.9750	212.3820	0.9	0.85	1000	-1000	1000	0.1	0.01	0	0	1;
	6092	0.0	0.0	1.00	584.2500	292.1250	210.3300	0.9	0.85	1000	-1000	1000	0.1	0.01	0	0	1;
	6155	0.0	0.0	1.00	529.3500	264.6750	190.5660	0.9	0.85	1000	-1000	1000	0.1	0.01	0	0	1;
	6284	0.0	0.0	1.00	528.9000	264.4500	190.4040	0.9	0.85	1000	-1000	1000	0.1	0.01	0	0	1;
	6215	0.0	0.0	1.00	508.9500	254.4750	183.2220	0.9	0.85	1000	-1000	1000	0.1	0.01	0	0	1;
	6105	0.0	0.0	1.00	507.7500	253.8750	182.7900	0.9	0.85	1000	-1000	1000	0.1	0.01	0	0	1;
	6024	0.0	0.0	1.00	500.2500	250.1250	180.0900	0.9	0.85	1000	-1000	1000	0.1	0.01	0	0	1;
	6141	0.0	0.0	1.00	494.4000	247.2000	177.9840	0.9	0.85	1000	-1000	1000	0.1	0.01	0	0	1;
	6164	0.0	0.0	1.00	485.7000	242.8500	174.8520	0.9	0.85	1000	-1000	1000	0.1	0.01	0	0	1;
	6169	0.0	0.0	1.00	471.1500	235.5750	169.6140	0.9	0.85	1000	-1000	1000	0.1	0.01	0	0	1;
	6250	0.0	0.0	1.00	456.3000	228.1500	164.2680	0.9	0.85	1000	-1000	1000	0.1	0.01	0	0	1;
	6158	0.0	0.0	1.00	453.7500	226.8750	163.3500	0.9	0.85	1000	-1000	1000	0.1	0.01	0	0	1;
	6004	0.0	0.0	1.00	448.9500	224.4750	161.6220	0.9	0.85	1000	-1000	1000	0.1	0.01	0	0	1;
	1509	0.0	0.0	1.00	433.9500	216.9750	156.2220	0.9	0.85	1000	-1000	1000	0.1	0.01	0	0	1;
	3783	0.0	0.0	1.00	423.9000	211.9500	152.6040	0.9	0.85	1000	-1000	1000	0.1	0.01	0	0	1;
	6266	0.0	0.0	1.00	402.6000	201.3000	144.9360	0.9	0.85	1000	-1000	1000	0.1	0.01	0	0	1;
	6059	0.0	0.0	1.00	352.2000	176.1000	126.7920	0.9	0.85	1000	-1000	1000	0.1	0.01	0	0	1;
	6246	0.0	0.0	1.00	348.3000	174.1500	125.3880	0.9	0.85	1000	-1000	1000	0.1	0.01	0	0	1;
	6069	0.0	0.0	1.00	347.4000	173.7000	125.0640	0.9	0.85	1000	-1000	1000	0.1	0.01	0	0	1;
	6061	0.0	0.0	1.00	342.0000	171.0000	123.1200	0.9	0.85	1000	-1000	1000	0.1	0.01	0	0	1;
	6027	0.0	0.0	1.00	333.3000	166.6500	119.9880	0.9	0.85	1000	-1000	1000	0.1	0.01	0	0	1;
	6110	0.0	0.0	1.00	325.6500	162.8250	117.2340	0.9	0.85	1000	-1000	1000	0.1	0.01	0	0	1;
	6149	0.0	0.0	1.00	320.8500	160.4250	115.5060	0.9	0.85	1000	-1000	1000	0.1	0.01	0	0	1;
	6204	0.0	0.0	1.00	319.5000	159.7500	115.0200	0.9	0.85	1000	-1000	1000	0.1	0.01	0	0	1;
	6201	0.0	0.0	1.00	316.5000	158.2500	113.9400	0.9	0.85	1000	-1000	1000	0.1	0.01	0	0	1;
	6009	0.0	0.0	1.00	315.9000	157.9500	113.7240	0.9	0.85	1000	-1000	1000	0.1	0.01	0	0	1;
	6283	0.0	0.0	1.00	315.4500	157.7250	113.5620	0.9	0.85	1000	-1000	1000	0.1	0.01	0	0	1;
	6156	0.0	0.0	1.00	311.8500	155.9250	112.2660	0.9	0.85	1000	-1000	1000	0.1	0.01	0	0	1;
	6116	0.0	0.0	1.00	307.5000	153.7500	110.7000	0.9	0.85	1000	-1000	1000	0.1	0.01	0	0	1;
	6154	0.0	0.0	1.00	307.5000	153.7500	110.7000	0.9	0.85	1000	-1000	1000	0.1	0.01	0	0	1;
	6253	0.0	0.0	1.00	305.1000	152.5500	109.8360	0.9	0.85	1000	-1000	1000	0.1	0.01	0	0	1;
	6143	0.0	0.0	1.00	299.1000	149.5500	107.6760	0.9	0.85	1000	-1000	1000	0.1	0.01	0	0	1;
	6281	0.0	0.0	1.00	299.1000	149.5500	107.6760	0.9	0.85	1000	-1000	1000	0.1	0.01	0	0	1;
	6063	0.0	0.0	1.00	296.8500	148.4250	106.8660	0.9	0.85	1000	-1000	1000	0.1	0.01	0	0	1;
	5995	0.0	0.0	1.00	289.3500	144.6750	104.1660	0.9	0.85	1000	-1000	1000	0.1	0.01	0	0	1;
	6185	0.0	0.0	1.00	287.2500	143.6250	103.4100	0.9	0.85	1000	-1000	1000	0.1	0.01	0	0	1;
	6140	0.0	0.0	1.00	286.8000	143.4000	103.2480	0.9	0.85	1000	-1000	1000	0.1	0.01	0	0	1;
	6220	0.0	0.0	1.00	276.0000	138.0000	99.3600	0.9	0.85	1000	-1000	1000	0.1	0.01	0	0	1;
	6171	0.0	0.0	1.00	274.3500	137.1750	98.7660	0.9	0.85	1000	-1000	1000	0.1	0.01	0	0	1;
	6279	0.0	0.0	1.00	273.4500	136.7250	98.4420	0.9	0.85	1000	-1000	1000	0.1	0.01	0	0	1;
	6205	0.0	0.0	1.00	268.5000	134.2500	96.6600	0.9	0.85	1000	-1000	1000	0.1	0.01	0	0	1;
	6014	0.0	0.0	1.00	264.1500	132.0750	95.0940	0.9	0.85	1000	-1000	1000	0.1	0.01	0	0	1;
	6210	0.0	0.0	1.00	262.5000	131.2500	94.5000	0.9	0.85	1000	-1000	1000	0.1	0.01	0	0	1;
	5076	0.0	0.0	1.00	256.6500	128.3250	92.3940	0.9	0.85	1000	-1000	1000	0.1	0.01	0	0	1;
	6139	0.0	0.0	1.00	255.7500	127.8750	92.0700	0.9	0.85	1000	-1000	1000	0.1	0.01	0	0	1;
	6259	0.0	0.0	1.00	253.3500	126.6750	91.2060	0.9	0.85	1000	-1000	1000	0.1	0.01	0	0	1;
	6085	0.0	0.0	1.00	252.9000	126.4500	91.0440	0.9	0.85	1000	-1000	1000	0.1	0.01	0	0	1;
	6048	0.0	0.0	1.00	247.5000	123.7500	89.1000	0.9	0.85	1000	-1000	1000	0.1	0.01	0	0	1;
	6074	0.0	0.0	1.00	243.6000	121.8000	87.6960	0.9	0.85	1000	-1000	1000	0.1	0.01	0	0	1;
	6280	0.0	0.0	1.00	241.3500	120.6750	86.8860	0.9	0.85	1000	-1000	1000	0.1	0.01	0	0	1;
	6062	0.0	0.0	1.00	240.6000	120.3000	86.6160	0.9	0.85	1000	-1000	1000	0.1	0.01	0	0	1;
	6202	0.0	0.0	1.00	233.4000	116.7000	84.0240	0.9	0.85	1000	-1000	1000	0.1	0.01	0	0	1;
	6113	0.0	0.0	1.00	232.8000	116.4000	83.8080	0.9	0.85	1000	-1000	1000	0.1	0.01	0	0	1;
	6222	0.0	0.0	1.00	230.2500	115.1250	82.8900	0.9	0.85	1000	-1000	1000	0.1	0.01	0	0	1;
	6049	0.0	0.0	1.00	230.1000	115.0500	82.8360	0.9	0.85	1000	-1000	1000	0.1	0.01	0	0	1;
	6093	0.0	0.0	1.00	229.6500	114.8250	82.6740	0.9	0.85	1000	-1000	1000	0.1	0.01	0	0	1;
	6198	0.0	0.0	1.00	226.5000	113.2500	81.5400	0.9	0.85	1000	-1000	1000	0.1	0.01	0	0	1;
	947	0.0	0.0	1.00	220.5000	110.2500	79.3800	0.9	0.85	1000	-1000	1000	0.1	0.01	0	0	1;
	3428	0.0	0.0	1.00	220.3500	110.1750	79.3260	0.9	0.85	1000	-1000	1000	0.1	0.01	0	0	1;
	6258	0.0	0.0	1.00	216.3000	108.1500	77.8680	0.9	0.85	1000	-1000	1000	0.1	0.01	0	0	1;
	6118	0.0	0.0	1.00	213.1500	106.5750	76.7340	0.9	0.85	1000	-1000	1000	0.1	0.01	0	0	1;
	6056	0.0	0.0	1.00	211.6500	105.8250	76.1940	0.9	0.85	1000	-1000	1000	0.1	0.01	0	0	1;
	6248	0.0	0.0	1.00	202.2000	101.1000	72.7920	0.9	0.85	1000	-1000	1000	0.1	0.01	0	0	1;
	6170	0.0	0.0	1.00	201.0000	100.5000	72.3600	0.9	0.85	1000	-1000	1000	0.1	0.01	0	0	1;
	6268	0.0	0.0	1.00	197.1000	98.5500	70.9560	0.9	0.85	1000	-1000	1000	0.1	0.01	0	0	1;
	591	0.0	0.0	1.00	193.8000	96.9000	69.7680	0.9	0.85	1000	-1000	1000	0.1	0.01	0	0	1;
	6084	0.0	0.0	1.00	192.4500	96.2250	69.2820	0.9	0.85	1000	-1000	1000	0.1	0.01	0	0	1;
	6032	0.0	0.0	1.00	188.4000	94.2000	67.8240	0.9	0.85	1000	-1000	1000	0.1	0.01	0	0	1;
	6223	0.0	0.0	1.00	186.9000	93.4500	67.2840	0.9	0.85	1000	-1000	1000	0.1	0.01	0	0	1;
	2966	0.0	0.0	1.00	184.3500	92.1750	66.3660	0.9	0.85	1000	-1000	1000	0.1	0.01	0	0	1;
	4606	0.0	0.0	1.00	183.9000	91.9500	66.2040	0.9	0.85	1000	-1000	1000	0.1	0.01	0	0	1;
	6107	0.0	0.0	1.00	183.3000	91.6500	65.9880	0.9	0.85	1000	-1000	1000	0.1	0.01	0	0	1;
	6135	0.0	0.0	1.00	182.7000	91.3500	65.7720	0.9	0.85	1000	-1000	1000	0.1	0.01	0	0	1;
	4371	0.0	0.0	1.00	182.5500	91.2750	65.7180	0.9	0.85	1000	-1000	1000	0.1	0.01	0	0	1;
	3248	0.0	0.0	1.00	180.9000	90.4500	65.1240	0.9	0.85	1000	-1000	1000	0.1	0.01	0	0	1;
	6214	0.0	0.0	1.00	180.4500	90.2250	64.9620	0.9	0.85	1000	-1000	1000	0.1	0.01	0	0	1;
	6150	0.0	0.0	1.00	177.0000	88.5000	63.7200	0.9	0.85	1000	-1000	1000	0.1	0.01	0	0	1;
	2022	0.0	0.0	1.00	171.7500	85.8750	61.8300	0.9	0.85	1000	-1000	1000	0.1	0.01	0	0	1;
	1194	0.0	0.0	1.00	170.4000	85.2000	61.3440	0.9	0.85	1000	-1000	1000	0.1	0.01	0	0	1;
	6212	0.0	0.0	1.00	170.4000	85.2000	61.3440	0.9	0.85	1000	-1000	1000	0.1	0.01	0	0	1;
	6022	0.0	0.0	1.00	168.9000	84.4500	60.8040	0.9	0.85	1000	-1000	1000	0.1	0.01	0	0	1;
	6174	0.0	0.0	1.00	168.7500	84.3750	60.7500	0.9	0.85	1000	-1000	1000	0.1	0.01	0	0	1;
	6146	0.0	0.0	1.00	164.8500	82.4250	59.3460	0.9	0.85	1000	-1000	1000	0.1	0.01	0	0	1;
	4594	0.0	0.0	1.00	163.3500	81.6750	58.8060	0.9	0.85	1000	-1000	1000	0.1	0.01	0	0	1;
	58	0.0	0.0	1.00	161.4000	80.7000	58.1040	0.9	0.85	1000	-1000	1000	0.1	0.01	0	0	1;
	3235	0.0	0.0	1.00	161.4000	80.7000	58.1040	0.9	0.85	1000	-1000	1000	0.1	0.01	0	0	1;
	5065	0.0	0.0	1.00	160.2000	80.1000	57.6720	0.9	0.85	1000	-1000	1000	0.1	0.01	0	0	1;
	6058	0.0	0.0	1.00	157.6500	78.8250	56.7540	0.9	0.85	1000	-1000	1000	0.1	0.01	0	0	1;
	3291	0.0	0.0	1.00	157.3500	78.6750	56.6460	0.9	0.85	1000	-1000	1000	0.1	0.01	0	0	1;
	6109	0.0	0.0	1.00	154.8000	77.4000	55.7280	0.9	0.85	1000	-1000	1000	0.1	0.01	0	0	1;
	4786	0.0	0.0	1.00	154.2000	77.1000	55.5120	0.9	0.85	1000	-1000	1000	0.1	0.01	0	0	1;
	4968	0.0	0.0	1.00	152.4000	76.2000	54.8640	0.9	0.85	1000	-1000	1000	0.1	0.01	0	0	1;
	3024	0.0	0.0	1.00	151.9500	75.9750	54.7020	0.9	0.85	1000	-1000	1000	0.1	0.01	0	0	1;
	6026	0.0	0.0	1.00	151.6500	75.8250	54.5940	0.9	0.85	1000	-1000	1000	0.1	0.01	0	0	1;
	1610	0.0	0.0	1.00	147.4500	73.7250	53.0820	0.9	0.85	1000	-1000	1000	0.1	0.01	0	0	1;
	3385	0.0	0.0	1.00	146.5500	73.2750	52.7580	0.9	0.85	1000	-1000	1000	0.1	0.01	0	0	1;
	6043	0.0	0.0	1.00	144.7500	72.3750	52.1100	0.9	0.85	1000	-1000	1000	0.1	0.01	0	0	1;
	3988	0.0	0.0	1.00	142.6500	71.3250	51.3540	0.9	0.85	1000	-1000	1000	0.1	0.01	0	0	1;
	6071	0.0	0.0	1.00	142.3500	71.1750	51.2460	0.9	0.85	1000	-1000	1000	0.1	0.01	0	0	1;
	6144	0.0	0.0	1.00	140.8500	70.4250	50.7060	0.9	0.85	1000	-1000	1000	0.1	0.01	0	0	1;
	5991	0.0	0.0	1.00	137.1000	68.5500	49.3560	0.9	0.85	1000	-1000	1000	0.1	0.01	0	0	1;
	3369	0.0	0.0	1.00	136.6500	68.3250	49.1940	0.9	0.85	1000	-1000	1000	0.1	0.01	0	0	1;
	4903	0.0	0.0	1.00	136.5000	68.2500	49.1400	0.9	0.85	1000	-1000	1000	0.1	0.01	0	0	1;
	5988	0.0	0.0	1.00	136.5000	68.2500	49.1400	0.9	0.85	1000	-1000	1000	0.1	0.01	0	0	1;
	4062	0.0	0.0	1.00	136.0500	68.0250	48.9780	0.9	0.85	1000	-1000	1000	0.1	0.01	0	0	1;
	6086	0.0	0.0	1.00	135.9000	67.9500	48.9240	0.9	0.85	1000	-1000	1000	0.1	0.01	0	0	1;
	1381	0.0	0.0	1.00	134.1000	67.0500	48.2760	0.9	0.85	1000	-1000	1000	0.1	0.01	0	0	1;
	2534	0.0	0.0	1.00	132.0000	66.0000	47.5200	0.9	0.85	1000	-1000	1000	0.1	0.01	0	0	1;
	6157	0.0	0.0	1.00	127.6500	63.8250	45.9540	0.9	0.85	1000	-1000	1000	0.1	0.01	0	0	1;
	83	0.0	0.0	1.00	127.5000	63.7500	45.9000	0.9	0.85	1000	-1000	1000	0.1	0.01	0	0	1;
	2703	0.0	0.0	1.00	126.7500	63.3750	45.6300	0.9	0.85	1000	-1000	1000	0.1	0.01	0	0	1;
	2214	0.0	0.0	1.00	126.3000	63.1500	45.4680	0.9	0.85	1000	-1000	1000	0.1	0.01	0	0	1;
	2807	0.0	0.0	1.00	126.1500	63.0750	45.4140	0.9	0.85	1000	-1000	1000	0.1	0.01	0	0	1;
	4423	0.0	0.0	1.00	125.2500	62.6250	45.0900	0.9	0.85	1000	-1000	1000	0.1	0.01	0	0	1;
	4583	0.0	0.0	1.00	124.0500	62.0250	44.6580	0.9	0.85	1000	-1000	1000	0.1	0.01	0	0	1;
	131	0.0	0.0	1.00	123.0000	61.5000	44.2800	0.9	0.85	1000	-1000	1000	0.1	0.01	0	0	1;
	4725	0.0	0.0	1.00	123.0000	61.5000	44.2800	0.9	0.85	1000	-1000	1000	0.1	0.01	0	0	1;
	6007	0.0	0.0	1.00	122.8500	61.4250	44.2260	0.9	0.85	1000	-1000	1000	0.1	0.01	0	0	1;
	3230	0.0	0.0	1.00	120.9000	60.4500	43.5240	0.9	0.85	1000	-1000	1000	0.1	0.01	0	0	1;
	4235	0.0	0.0	1.00	120.6000	60.3000	43.4160	0.9	0.85	1000	-1000	1000	0.1	0.01	0	0	1;
	6000	0.0	0.0	1.00	119.7000	59.8500	43.0920	0.9	0.85	1000	-1000	1000	0.1	0.01	0	0	1;
	6160	0.0	0.0	1.00	119.5500	59.7750	43.0380	0.9	0.85	1000	-1000	1000	0.1	0.01	0	0	1;
	2225	0.0	0.0	1.00	118.3500	59.1750	42.6060	0.9	0.85	1000	-1000	1000	0.1	0.01	0	0	1;
	3732	0.0	0.0	1.00	116.1000	58.0500	41.7960	0.9	0.85	1000	-1000	1000	0.1	0.01	0	0	1;
	2446	0.0	0.0	1.00	115.8000	57.9000	41.6880	0.9	0.85	1000	-1000	1000	0.1	0.01	0	0	1;
	3765	0.0	0.0	1.00	115.6500	57.8250	41.6340	0.9	0.85	1000	-1000	1000	0.1	0.01	0	0	1;
	432	0.0	0.0	1.00	115.5000	57.7500	41.5800	0.9	0.85	1000	-1000	1000	0.1	0.01	0	0	1;
	6038	0.0	0.0	1.00	115.2000	57.6000	41.4720	0.9	0.85	1000	-1000	1000	0.1	0.01	0	0	1;
	6044	0.0	0.0	1.00	114.1500	57.0750	41.0940	0.9	0.85	1000	-1000	1000	0.1	0.01	0	0	1;
	228	0.0	0.0	1.00	113.5500	56.7750	40.8780	0.9	0.85	1000	-1000	1000	0.1	0.01	0	0	1;
	1016	0.0	0.0	1.00	113.1000	56.5500	40.7160	0.9	0.85	1000	-1000	1000	0.1	0.01	0	0	1;
	229	0.0	0.0	1.00	112.0500	56.0250	40.3380	0.9	0.85	1000	-1000	1000	0.1	0.01	0	0	1;
	6153	0.0	0.0	1.00	109.9500	54.9750	39.5820	0.9	0.85	1000	-1000	1000	0.1	0.01	0	0	1;
	785	0.0	0.0	1.00	109.6500	54.8250	39.4740	0.9	0.85	1000	-1000	1000	0.1	0.01	0	0	1;
	6012	0.0	0.0	1.00	109.5000	54.7500	39.4200	0.9	0.85	1000	-1000	1000	0.1	0.01	0	0	1;
	4410	0.0	0.0	1.00	108.9000	54.4500	39.2040	0.9	0.85	1000	-1000	1000	0.1	0.01	0	0	1;
	4748	0.0	0.0	1.00	108.7500	54.3750	39.1500	0.9	0.85	1000	-1000	1000	0.1	0.01	0	0	1;
	4630	0.0	0.0	1.00	108.6000	54.3000	39.0960	0.9	0.85	1000	-1000	1000	0.1	0.01	0	0	1;
	6082	0.0	0.0	1.00	108.0000	54.0000	38.8800	0.9	0.85	1000	-1000	1000	0.1	0.01	0	0	1;
	134	0.0	0.0	1.00	107.5500	53.7750	38.7180	0.9	0.85	1000	-1000	1000	0.1	0.01	0	0	1;
	107	0.0	0.0	1.00	107.4000	53.7000	38.6640	0.9	0.85	1000	-1000	1000	0.1	0.01	0	0	1;
	1899	0.0	0.0	1.00	106.8000	53.4000	38.4480	0.9	0.85	1000	-1000	1000	0.1	0.01	0	0	1;
	3425	0.0	0.0	1.00	106.8000	53.4000	38.4480	0.9	0.85	1000	-1000	1000	0.1	0.01	0	0	1;
	6127	0.0	0.0	1.00	106.6500	53.3250	38.3940	0.9	0.85	1000	-1000	1000	0.1	0.01	0	0	1;
	2264	0.0	0.0	1.00	105.4500	52.7250	37.9620	0.9	0.85	1000	-1000	1000	0.1	0.01	0	0	1;
	6042	0.0	0.0	1.00	105.0000	52.5000	37.8000	0.9	0.85	1000	-1000	1000	0.1	0.01	0	0	1;
	3104	0.0	0.0	1.00	104.8500	52.4250	37.7460	0.9	0.85	1000	-1000	1000	0.1	0.01	0	0	1;
	2185	0.0	0.0	1.00	103.9500	51.9750	37.4220	0.9	0.85	1000	-1000	1000	0.1	0.01	0	0	1;
	3969	0.0	0.0	1.00	103.8000	51.9000	37.3680	0.9	0.85	1000	-1000	1000	0.1	0.01	0	0	1;
	3181	0.0	0.0	1.00	103.6500	51.8250	37.3140	0.9	0.85	1000	-1000	1000	0.1	0.01	0	0	1;
	1177	0.0	0.0	1.00	103.3500	51.6750	37.2060	0.9	0.85	1000	-1000	1000	0.1	0.01	0	0	1;
	6020	0.0	0.0	1.00	101.8500	50.9250	36.6660	0.9	0.85	1000	-1000	1000	0.1	0.01	0	0	1;
	3755	0.0	0.0	1.00	101.2500	50.6250	36.4500	0.9	0.85	1000	-1000	1000	0.1	0.01	0	0	1;
	3651	0.0	0.0	1.00	100.9500	50.4750	36.3420	0.9	0.85	1000	-1000	1000	0.1	0.01	0	0	1;
	3674	0.0	0.0	1.00	100.9500	50.4750	36.3420	0.9	0.85	1000	-1000	1000	0.1	0.01	0	0	1;
	6030	0.0	0.0	1.00	100.5000	50.2500	36.1800	0.9	0.85	1000	-1000	1000	0.1	0.01	0	0	1;
	4183	0.0	0.0	1.00	99.3000	49.6500	35.7480	0.9	0.85	1000	-1000	1000	0.1	0.01	0	0	1;
	2218	0.0	0.0	1.00	99.1500	49.5750	35.6940	0.9	0.85	1000	-1000	1000	0.1	0.01	0	0	1;
	2837	0.0	0.0	1.00	99.0000	49.5000	35.6400	0.9	0.85	1000	-1000	1000	0.1	0.01	0	0	1;
	3145	0.0	0.0	1.00	98.8500	49.4250	35.5860	0.9	0.85	1000	-1000	1000	0.1	0.01	0	0	1;
	4128	0.0	0.0	1.00	98.8500	49.4250	35.5860	0.9	0.85	1000	-1000	1000	0.1	0.01	0	0	1;
	6263	0.0	0.0	1.00	98.5500	49.2750	35.4780	0.9	0.85	1000	-1000	1000	0.1	0.01	0	0	1;
	1714	0.0	0.0	1.00	98.1000	49.0500	35.3160	0.9	0.85	1000	-1000	1000	0.1	0.01	0	0	1;
	4221	0.0	0.0	1.00	98.1000	49.0500	35.3160	0.9	0.85	1000	-1000	1000	0.1	0.01	0	0	1;
	2806	0.0	0.0	1.00	97.3500	48.6750	35.0460	0.9	0.85	1000	-1000	1000	0.1	0.01	0	0	1;
	4668	0.0	0.0	1.00	97.3500	48.6750	35.0460	0.9	0.85	1000	-1000	1000	0.1	0.01	0	0	1;
	809	0.0	0.0	1.00	96.6000	48.3000	34.7760	0.9	0.85	1000	-1000	1000	0.1	0.01	0	0	1;
	907	0.0	0.0	1.00	96.0000	48.0000	34.5600	0.9	0.85	1000	-1000	1000	0.1	0.01	0	0	1;
	1097	0.0	0.0	1.00	95.2500	47.6250	34.2900	0.9	0.85	1000	-1000	1000	0.1	0.01	0	0	1;
	6186	0.0	0.0	1.00	95.1000	47.5500	34.2360	0.9	0.85	1000	-1000	1000	0.1	0.01	0	0	1;
	4065	0.0	0.0	1.00	94.8000	47.4000	34.1280	0.9	0.85	1000	-1000	1000	0.1	0.01	0	0	1;
	6031	0.0	0.0	1.00	94.3500	47.1750	33.9660	0.9	0.85	1000	-1000	1000	0.1	0.01	0	0	1;
	1274	0.0	0.0	1.00	93.9000	46.9500	33.8040	0.9	0.85	1000	-1000	1000	0.1	0.01	0	0	1;
	3866	0.0	0.0	1.00	93.4500	46.7250	33.6420	0.9	0.85	1000	-1000	1000	0.1	0.01	0	0	1;
	6251	0.0	0.0	1.00	93.4500	46.7250	33.6420	0.9	0.85	1000	-1000	1000	0.1	0.01	0	0	1;
	682	0.0	0.0	1.00	93.3000	46.6500	33.5880	0.9	0.85	1000	-1000	1000	0.1	0.01	0	0	1;
	6196	0.0	0.0	1.00	93.0000	46.5000	33.4800	0.9	0.85	1000	-1000	1000	0.1	0.01	0	0	1;
	3730	0.0	0.0	1.00	92.8500	46.4250	33.4260	0.9	0.85	1000	-1000	1000	0.1	0.01	0	0	1;
...
];

%% branch data
%	fbus	tbus	r	x	b	rateA	rateB	rateC	ratio	angle	status	angmin	angmax
mpc.branch = [
	4667	 1	 0.005726	 0.010482	 0.0	 2186	 2186	 2186	 0.0	 0.0	 1	 -30.0	 30.0;
	5273	 1	 0.01284	 0.025679	 0.0	 910	 910	 910	 0.0	 0.0	 1	 -30.0	 30.0;
	1689	 2	 0.005799	 0.010615	 0.0075	 2441	 2441	 2441	 0.0	 0.0	 1	 -30.0	 30.0;
	1680	 3	 0.134039	 0.309398	 0.0035	 91	 91	 91	 0.0	 0.0	 1	 -30.0	 30.0;
	2311	 3	 0.049131	 0.133283	 0.0015	 215	 215	 215	 0.0	 0.0	 1	 -30.0	 30.0;
	696	 4	 0.025926	 0.109136	 0.0002	 281	 281	 281	 0.0	 0.0	 1	 -30.0	 30.0;
	3961	 4	 0.05	 0.126914	 0.0006	 226	 226	 226	 0.0	 0.0	 1	 -30.0	 30.0;
	5073	 4	 0.02321	 0.097407	 0.0016	 315	 315	 315	 0.0	 0.0	 1	 -30.0	 30.0;
	4437	 5	 0.040564	 0.113631	 0.0013	 245	 245	 245	 0.0	 0.0	 1	 -30.0	 30.0;
	2789	 6	 0.006047	 0.020912	 0.0222	 1398	 1398	 1398	 0.0	 0.0	 1	 -30.0	 30.0;
	2790	 7	 0.012472	 0.032099	 0.0061	 884	 884	 884	 0.0	 0.0	 1	 -30.0	 30.0;
	2477	 8	 0.002607	 0.017462	 0.0324	 540.0	 540.0	 540.0	 0.0	 0.0	 1	 -30.0	 30.0;
	473	 9	 0.053893	 0.14258	 0.0017	 194	 194	 194	 0.0	 0.0	 1	 -30.0	 30.0;
	11	 10	 0.000247	 0.001235	 0.0005	 24078	 24078	 24078	 0.0	 0.0	 1	 -30.0	 30.0;
	11	 10	 0.000247	 0.001235	 0.0002	 24078	 24078	 24078	 0.0	 0.0	 1	 -30.0	 30.0;
...